/*---------------------------------------------------------------------------*\
| =========                 |                                                 |
| \\      /  F ield         | OpenFOAM: The Open Source CFD Toolbox           |
|  \\    /   O peration     | Version:  dev                                   |
|   \\  /    A nd           | Web:      www.OpenFOAM.org                      |
|    \\/     M anipulation  |                                                 |
\*---------------------------------------------------------------------------*/
Build  : dev-018adc16c91b
Exec   : checkMesh
Date   : Sep 13 2017
Time   : 08:29:33
Host   : "aris"
PID    : 4644
I/O    : uncollated
Case   : /home/eadaymo/RapidCFD/eadaymo-rapid/run/damBreak-rapidCFD
nProcs : 1
sigFpe : Enabling floating point exception trapping (FOAM_SIGFPE).
fileModificationChecking : Monitoring run-time modified files using timeStampMaster (fileModificationSkew 10)
allowSystemOperations : Allowing user-supplied system call operations

// * * * * * * * * * * * * * * * * * * * * * * * * * * * * * * * * * * * * * //
Create time

Create polyMesh for time = 0

Time = 0

Mesh stats
    points:           11350402
    internal points:  0
    faces:            22685200
    internal faces:   11334800
    cells:            5670000
    faces per cell:   6
    boundary patches: 5
    point zones:      0
    face zones:       0
    cell zones:       0

Overall number of cells of each type:
    hexahedra:     5670000
    prisms:        0
    wedges:        0
    pyramids:      0
    tet wedges:    0
    tetrahedra:    0
    polyhedra:     0

Checking topology...
    Boundary definition OK.
    Cell to face addressing OK.
    Point usage OK.
    Upper triangular ordering OK.
    Face vertices OK.
    Number of regions: 1 (OK).

Checking patch topology for multiply connected surfaces...
    Patch               Faces    Points   Surface topology                  
    leftWall            2500     5002     ok (non-closed singly connected)  
    rightWall           2500     5002     ok (non-closed singly connected)  
    lowerWall           3100     6202     ok (non-closed singly connected)  
    atmosphere          2300     4602     ok (non-closed singly connected)  
    defaultFaces        11340000 11350402 ok (non-closed singly connected)  

Checking geometry...
    Overall domain bounding box (0 0 0) (0.584 0.584 0.0146)
    Mesh has 2 geometric (non-empty/wedge) directions (1 1 0)
    Mesh has 2 solution (non-empty) directions (1 1 0)
    All edges aligned with or perpendicular to non-empty directions.
    Boundary openness (-7.26557e-16 1.72129e-16 1.40666e-12) OK.
    Max cell openness = 2.17187e-16 OK.
    Max aspect ratio = 2.35093 OK.
    Minimum face area = 3.04689e-08. Maximum face area = 4.11875e-06.  Face area magnitudes OK.
    Min volume = 4.44846e-10. Max volume = 1.05126e-09.  Total volume = 0.0049626.  Cell volumes OK.
    Mesh non-orthogonality Max: 0 average: 0
    Non-orthogonality check OK.
    Face pyramids OK.
    Max skewness = 2.60985e-12 OK.
    Coupled point location match (average 0) OK.

Mesh OK.

End

