/*---------------------------------------------------------------------------*\
| =========                 |                                                 |
| \\      /  F ield         | OpenFOAM: The Open Source CFD Toolbox           |
|  \\    /   O peration     | Version:  5.0                                   |
|   \\  /    A nd           | Web:      www.OpenFOAM.org                      |
|    \\/     M anipulation  |                                                 |
\*---------------------------------------------------------------------------*/
Build  : 5.0-dbb428a3a855
Exec   : interFoam
Date   : Sep 11 2017
Time   : 15:40:33
Host   : "langmuir"
PID    : 16662
I/O    : uncollated
Case   : /home/eadaymo/OpenFOAM/eadaymo-5.0/run/interFoam-paralution/damBreak
nProcs : 1
sigFpe : Enabling floating point exception trapping (FOAM_SIGFPE).
fileModificationChecking : Monitoring run-time modified files using timeStampMaster (fileModificationSkew 10)
allowSystemOperations : Allowing user-supplied system call operations

// * * * * * * * * * * * * * * * * * * * * * * * * * * * * * * * * * * * * * //
Create time

Create mesh for time = 0


PIMPLE: Operating solver in PISO mode

Reading field p_rgh

Reading field U

Reading/calculating face flux field phi

Reading transportProperties

Selecting incompressible transport model Newtonian
Selecting incompressible transport model Newtonian
Selecting turbulence model type RAS
Selecting RAS turbulence model kEpsilon
RAS
{
    RASModel        kEpsilon;
    turbulence      on;
    printCoeffs     on;
    Cmu             0.09;
    C1              1.44;
    C2              1.92;
    C3              0;
    sigmak          1;
    sigmaEps        1.3;
}


Reading g

Reading hRef
Calculating field g.h

No MRF models present

No finite volume options present

DICPCG:  Solving for pcorr, Initial residual = 0, Final residual = 0, No Iterations 0
time step continuity errors : sum local = 0, global = 0, cumulative = 0
Courant Number mean: 0 max: 0

Starting time loop

Courant Number mean: 0 max: 0
Interface Courant Number mean: 0 max: 0
deltaT = 0.00119048
Time = 0.00119048

PIMPLE: iteration 1
smoothSolver:  Solving for alpha.water, Initial residual = 0, Final residual = 0, No Iterations 0
Phase-1 volume fraction = 0.125427  Min(alpha.water) = 0  Max(alpha.water) = 1
MULES: Correcting alpha.water
MULES: Correcting alpha.water
Phase-1 volume fraction = 0.125427  Min(alpha.water) = 0  Max(alpha.water) = 1
DICPCG:  Solving for p_rgh, Initial residual = 1, Final residual = 0.0456798, No Iterations 27
time step continuity errors : sum local = 8.57862e-06, global = -3.50132e-21, cumulative = -3.50132e-21
DICPCG:  Solving for p_rgh, Initial residual = 0.00628846, Final residual = 0.000305809, No Iterations 612
time step continuity errors : sum local = 5.48954e-07, global = -1.76597e-08, cumulative = -1.76597e-08
DICPCG:  Solving for p_rgh, Initial residual = 0.000105433, Final residual = 3.63822e-06, No Iterations 1001
time step continuity errors : sum local = 1.22817e-07, global = -2.01864e-08, cumulative = -3.78461e-08
smoothSolver:  Solving for epsilon, Initial residual = 0.196645, Final residual = 0.000122634, No Iterations 1000
smoothSolver:  Solving for k, Initial residual = 1, Final residual = 0.00677483, No Iterations 1000
ExecutionTime = 679.51 s  ClockTime = 680 s

Courant Number mean: 8.81119e-05 max: 0.00948052
Interface Courant Number mean: 0 max: 0
deltaT = 0.00139456
Time = 0.00258503

PIMPLE: iteration 1
smoothSolver:  Solving for alpha.water, Initial residual = 1.49492e-07, Final residual = 2.34903e-14, No Iterations 1
Phase-1 volume fraction = 0.125427  Min(alpha.water) = 0  Max(alpha.water) = 1
MULES: Correcting alpha.water
MULES: Correcting alpha.water
Phase-1 volume fraction = 0.125427  Min(alpha.water) = -1.47253e-15  Max(alpha.water) = 1
DICPCG:  Solving for p_rgh, Initial residual = 0.00130298, Final residual = 6.31873e-05, No Iterations 835
time step continuity errors : sum local = 1.40275e-06, global = -1.26315e-07, cumulative = -1.64161e-07
DICPCG:  Solving for p_rgh, Initial residual = 9.67164e-05, Final residual = 7.71086e-05, No Iterations 1001
time step continuity errors : sum local = 1.78681e-06, global = -5.27782e-08, cumulative = -2.1694e-07
DICPCG:  Solving for p_rgh, Initial residual = 0.000113969, Final residual = 7.0637e-05, No Iterations 1001
time step continuity errors : sum local = 1.6136e-06, global = -5.83392e-08, cumulative = -2.75279e-07
smoothSolver:  Solving for epsilon, Initial residual = 0.910817, Final residual = 9.98535e-07, No Iterations 341
smoothSolver:  Solving for k, Initial residual = 0.103961, Final residual = 0.000194799, No Iterations 1000
ExecutionTime = 1323.14 s  ClockTime = 1324 s

Courant Number mean: 0.00123262 max: 0.361947
Interface Courant Number mean: 2.70218e-09 max: 0.0141722
deltaT = 0.001635
Time = 0.00422003

PIMPLE: iteration 1
smoothSolver:  Solving for alpha.water, Initial residual = 1.68015e-06, Final residual = 4.54313e-09, No Iterations 1
Phase-1 volume fraction = 0.125427  Min(alpha.water) = 0  Max(alpha.water) = 1.0001
MULES: Correcting alpha.water
MULES: Correcting alpha.water
Phase-1 volume fraction = 0.125427  Min(alpha.water) = -8.54618e-05  Max(alpha.water) = 1.0001
DICPCG:  Solving for p_rgh, Initial residual = 0.00353004, Final residual = 0.000140997, No Iterations 2
time step continuity errors : sum local = 8.07467e-06, global = 9.51733e-07, cumulative = 6.76454e-07
DICPCG:  Solving for p_rgh, Initial residual = 0.000201282, Final residual = 3.3059e-05, No Iterations 1001
time step continuity errors : sum local = 1.88881e-06, global = -8.30166e-08, cumulative = 5.93438e-07
DICPCG:  Solving for p_rgh, Initial residual = 0.000103768, Final residual = 2.92135e-05, No Iterations 1001
time step continuity errors : sum local = 1.77582e-06, global = -5.50714e-08, cumulative = 5.38366e-07
smoothSolver:  Solving for epsilon, Initial residual = 0.157551, Final residual = 6.58326e-06, No Iterations 1000
smoothSolver:  Solving for k, Initial residual = 0.0568538, Final residual = 0.000273458, No Iterations 1000
ExecutionTime = 1971.05 s  ClockTime = 1971 s

Courant Number mean: 0.00298589 max: 2.86283
Interface Courant Number mean: 3.18091e-06 max: 2.76448
deltaT = 0.000565185
Time = 0.00478522

PIMPLE: iteration 1
smoothSolver:  Solving for alpha.water, Initial residual = 1.125e-06, Final residual = 2.73273e-09, No Iterations 1
Phase-1 volume fraction = 0.125427  Min(alpha.water) = -1.11572e-08  Max(alpha.water) = 1.00009
MULES: Correcting alpha.water
MULES: Correcting alpha.water
Phase-1 volume fraction = 0.125427  Min(alpha.water) = -9.90801e-06  Max(alpha.water) = 1.00009
DICPCG:  Solving for p_rgh, Initial residual = 0.00202363, Final residual = 8.42193e-05, No Iterations 2
time step continuity errors : sum local = 1.52314e-06, global = -2.31974e-08, cumulative = 5.15169e-07
DICPCG:  Solving for p_rgh, Initial residual = 0.000140606, Final residual = 6.83072e-06, No Iterations 836
time step continuity errors : sum local = 1.23417e-07, global = -1.27642e-08, cumulative = 5.02405e-07
DICPCG:  Solving for p_rgh, Initial residual = 6.57144e-05, Final residual = 6.82249e-06, No Iterations 1001
time step continuity errors : sum local = 1.21627e-07, global = -4.72265e-09, cumulative = 4.97682e-07
smoothSolver:  Solving for epsilon, Initial residual = 0.0396093, Final residual = 9.95605e-07, No Iterations 509
smoothSolver:  Solving for k, Initial residual = 0.0166612, Final residual = 1.99364e-06, No Iterations 1000
ExecutionTime = 2512.33 s  ClockTime = 2513 s

Courant Number mean: 0.0014123 max: 3.49212
Interface Courant Number mean: 2.88918e-06 max: 3.47354
deltaT = 0.000161481
Time = 0.0049467

PIMPLE: iteration 1
smoothSolver:  Solving for alpha.water, Initial residual = 6.3883e-07, Final residual = 8.2342e-09, No Iterations 1
Phase-1 volume fraction = 0.125427  Min(alpha.water) = -5.07798e-09  Max(alpha.water) = 1.00009
MULES: Correcting alpha.water
MULES: Correcting alpha.water
Phase-1 volume fraction = 0.125427  Min(alpha.water) = -2.94284e-07  Max(alpha.water) = 1.00009
DICPCG:  Solving for p_rgh, Initial residual = 0.00090588, Final residual = 3.37683e-05, No Iterations 2
time step continuity errors : sum local = 1.37115e-07, global = -8.91682e-10, cumulative = 4.96791e-07
DICPCG:  Solving for p_rgh, Initial residual = 0.000129164, Final residual = 6.42714e-06, No Iterations 740
time step continuity errors : sum local = 2.6084e-08, global = 2.67276e-09, cumulative = 4.99463e-07
DICPCG:  Solving for p_rgh, Initial residual = 5.97069e-05, Final residual = 3.36481e-05, No Iterations 1001
time step continuity errors : sum local = 1.34426e-07, global = 2.40384e-09, cumulative = 5.01867e-07
smoothSolver:  Solving for epsilon, Initial residual = 0.010309, Final residual = 9.74877e-07, No Iterations 105
smoothSolver:  Solving for k, Initial residual = 0.00460978, Final residual = 9.85491e-07, No Iterations 259
ExecutionTime = 2828.34 s  ClockTime = 2829 s

Courant Number mean: 0.000457899 max: 0.533692
Interface Courant Number mean: 6.58887e-07 max: 0.448607
deltaT = 0.000191716
Time = 0.00513842

PIMPLE: iteration 1
smoothSolver:  Solving for alpha.water, Initial residual = 6.47759e-07, Final residual = 3.18953e-09, No Iterations 1
Phase-1 volume fraction = 0.125427  Min(alpha.water) = -1.74602e-09  Max(alpha.water) = 1.00009
MULES: Correcting alpha.water
MULES: Correcting alpha.water
Phase-1 volume fraction = 0.125427  Min(alpha.water) = -3.03497e-05  Max(alpha.water) = 1.00009
DICPCG:  Solving for p_rgh, Initial residual = 0.00125056, Final residual = 5.49645e-05, No Iterations 2
time step continuity errors : sum local = 2.66996e-07, global = 4.00942e-09, cumulative = 5.05877e-07
DICPCG:  Solving for p_rgh, Initial residual = 9.78239e-05, Final residual = 9.58429e-06, No Iterations 1001
time step continuity errors : sum local = 4.6528e-08, global = 2.76686e-09, cumulative = 5.08643e-07
DICPCG:  Solving for p_rgh, Initial residual = 4.28049e-05, Final residual = 4.39341e-06, No Iterations 1001
time step continuity errors : sum local = 2.21167e-08, global = 2.34978e-09, cumulative = 5.10993e-07
smoothSolver:  Solving for epsilon, Initial residual = 0.0117877, Final residual = 9.88311e-07, No Iterations 132
smoothSolver:  Solving for k, Initial residual = 0.00518544, Final residual = 9.97451e-07, No Iterations 316
ExecutionTime = 3274.31 s  ClockTime = 3275 s

Courant Number mean: 0.000606083 max: 0.884944
Interface Courant Number mean: 7.16608e-07 max: 0.505348
deltaT = 0.000212614
Time = 0.00535103

PIMPLE: iteration 1
smoothSolver:  Solving for alpha.water, Initial residual = 7.28723e-07, Final residual = 3.28052e-09, No Iterations 1
Phase-1 volume fraction = 0.125427  Min(alpha.water) = -1.15893e-09  Max(alpha.water) = 1.00009
MULES: Correcting alpha.water
MULES: Correcting alpha.water
Phase-1 volume fraction = 0.125427  Min(alpha.water) = -1.72602e-05  Max(alpha.water) = 1.00009
DICPCG:  Solving for p_rgh, Initial residual = 0.00143584, Final residual = 3.05524e-05, No Iterations 2
time step continuity errors : sum local = 1.69677e-07, global = 1.88745e-09, cumulative = 5.12881e-07
DICPCG:  Solving for p_rgh, Initial residual = 7.29393e-05, Final residual = 3.60537e-06, No Iterations 796
time step continuity errors : sum local = 2.00065e-08, global = 5.51188e-10, cumulative = 5.13432e-07
DICPCG:  Solving for p_rgh, Initial residual = 3.30356e-05, Final residual = 4.08291e-06, No Iterations 1001
time step continuity errors : sum local = 2.33859e-08, global = 9.59601e-10, cumulative = 5.14391e-07
smoothSolver:  Solving for epsilon, Initial residual = 0.0125419, Final residual = 9.9542e-07, No Iterations 152
smoothSolver:  Solving for k, Initial residual = 0.00544165, Final residual = 9.95378e-07, No Iterations 356
ExecutionTime = 3617.46 s  ClockTime = 3618 s

Courant Number mean: 0.000743482 max: 0.452056
Interface Courant Number mean: 8.30279e-07 max: 0.452056
deltaT = 0.000253687
Time = 0.00560472

PIMPLE: iteration 1
smoothSolver:  Solving for alpha.water, Initial residual = 8.74487e-07, Final residual = 2.65931e-09, No Iterations 1
Phase-1 volume fraction = 0.125427  Min(alpha.water) = -4.66285e-10  Max(alpha.water) = 1.00009
MULES: Correcting alpha.water
MULES: Correcting alpha.water
Phase-1 volume fraction = 0.125427  Min(alpha.water) = -3.90136e-05  Max(alpha.water) = 1.00009
DICPCG:  Solving for p_rgh, Initial residual = 0.00169416, Final residual = 3.60839e-05, No Iterations 2
time step continuity errors : sum local = 2.48414e-07, global = 1.38719e-09, cumulative = 5.15779e-07
DICPCG:  Solving for p_rgh, Initial residual = 6.52172e-05, Final residual = 3.23332e-06, No Iterations 818
time step continuity errors : sum local = 2.2233e-08, global = -2.10058e-09, cumulative = 5.13678e-07
DICPCG:  Solving for p_rgh, Initial residual = 2.4502e-05, Final residual = 3.82824e-06, No Iterations 1001
time step continuity errors : sum local = 2.7353e-08, global = -1.14646e-09, cumulative = 5.12532e-07
smoothSolver:  Solving for epsilon, Initial residual = 0.0143096, Final residual = 9.8905e-07, No Iterations 193
smoothSolver:  Solving for k, Initial residual = 0.00610124, Final residual = 9.94423e-07, No Iterations 437
ExecutionTime = 3992.02 s  ClockTime = 3992 s

Courant Number mean: 0.000978957 max: 0.613664
Interface Courant Number mean: 1.12431e-06 max: 0.479114
deltaT = 0.000294008
Time = 0.00589873

PIMPLE: iteration 1
smoothSolver:  Solving for alpha.water, Initial residual = 1.25248e-06, Final residual = 4.7636e-09, No Iterations 1
Phase-1 volume fraction = 0.125427  Min(alpha.water) = -2.43716e-10  Max(alpha.water) = 1.00008
MULES: Correcting alpha.water
MULES: Correcting alpha.water
Phase-1 volume fraction = 0.125427  Min(alpha.water) = -3.56211e-09  Max(alpha.water) = 1.00008
DICPCG:  Solving for p_rgh, Initial residual = 0.00223698, Final residual = 5.00916e-05, No Iterations 2
time step continuity errors : sum local = 4.14313e-07, global = -9.26881e-10, cumulative = 5.11605e-07
DICPCG:  Solving for p_rgh, Initial residual = 9.44483e-05, Final residual = 4.59701e-06, No Iterations 794
time step continuity errors : sum local = 3.79723e-08, global = -4.45684e-09, cumulative = 5.07148e-07
DICPCG:  Solving for p_rgh, Initial residual = 3.59933e-05, Final residual = 9.17316e-06, No Iterations 1001
time step continuity errors : sum local = 7.88292e-08, global = -2.85603e-09, cumulative = 5.04292e-07
smoothSolver:  Solving for epsilon, Initial residual = 0.0157769, Final residual = 9.92531e-07, No Iterations 235
smoothSolver:  Solving for k, Initial residual = 0.00661547, Final residual = 9.97351e-07, No Iterations 517
ExecutionTime = 4379.1 s  ClockTime = 4380 s

Courant Number mean: 0.00125252 max: 0.659851
Interface Courant Number mean: 1.49636e-06 max: 0.516595
deltaT = 0.000336651
Time = 0.00623538

PIMPLE: iteration 1
smoothSolver:  Solving for alpha.water, Initial residual = 1.75409e-06, Final residual = 6.92733e-09, No Iterations 1
Phase-1 volume fraction = 0.125427  Min(alpha.water) = -1.30091e-10  Max(alpha.water) = 1.00008
MULES: Correcting alpha.water
MULES: Correcting alpha.water
Phase-1 volume fraction = 0.125427  Min(alpha.water) = -5.75302e-05  Max(alpha.water) = 1.00008
DICPCG:  Solving for p_rgh, Initial residual = 0.00295965, Final residual = 6.75587e-05, No Iterations 2
time step continuity errors : sum local = 6.62354e-07, global = -1.96261e-09, cumulative = 5.02329e-07
DICPCG:  Solving for p_rgh, Initial residual = 0.00016472, Final residual = 7.96607e-06, No Iterations 788
time step continuity errors : sum local = 7.79864e-08, global = -6.04649e-09, cumulative = 4.96283e-07
DICPCG:  Solving for p_rgh, Initial residual = 6.87331e-05, Final residual = 7.70481e-06, No Iterations 1001
time step continuity errors : sum local = 7.85464e-08, global = -3.5714e-09, cumulative = 4.92711e-07
smoothSolver:  Solving for epsilon, Initial residual = 0.0171359, Final residual = 9.88201e-07, No Iterations 282
smoothSolver:  Solving for k, Initial residual = 0.00706826, Final residual = 9.94285e-07, No Iterations 603
ExecutionTime = 4806.32 s  ClockTime = 4807 s

Courant Number mean: 0.00158521 max: 1.2043
Interface Courant Number mean: 2.58369e-06 max: 0.939081
deltaT = 0.000278756
Time = 0.00651413

PIMPLE: iteration 1
smoothSolver:  Solving for alpha.water, Initial residual = 2.2505e-06, Final residual = 1.37027e-10, No Iterations 2
Phase-1 volume fraction = 0.125427  Min(alpha.water) = -1.08254e-10  Max(alpha.water) = 1.00008
MULES: Correcting alpha.water
MULES: Correcting alpha.water
Phase-1 volume fraction = 0.125427  Min(alpha.water) = -4.81641e-05  Max(alpha.water) = 1.00008
DICPCG:  Solving for p_rgh, Initial residual = 0.00321812, Final residual = 6.33414e-05, No Iterations 2
time step continuity errors : sum local = 5.00388e-07, global = -1.69723e-09, cumulative = 4.91014e-07
DICPCG:  Solving for p_rgh, Initial residual = 0.000225049, Final residual = 1.0714e-05, No Iterations 719
time step continuity errors : sum local = 8.45284e-08, global = -2.88481e-09, cumulative = 4.88129e-07
DICPCG:  Solving for p_rgh, Initial residual = 0.000107402, Final residual = 2.75588e-06, No Iterations 1001
time step continuity errors : sum local = 2.23294e-08, global = -1.12568e-09, cumulative = 4.87004e-07
smoothSolver:  Solving for epsilon, Initial residual = 0.0134981, Final residual = 9.86452e-07, No Iterations 224
smoothSolver:  Solving for k, Initial residual = 0.00557461, Final residual = 9.94648e-07, No Iterations 480
ExecutionTime = 5205.06 s  ClockTime = 5206 s

Courant Number mean: 0.00142958 max: 0.923978
Interface Courant Number mean: 2.38467e-06 max: 0.735741
deltaT = 0.000299903
Time = 0.00681403

PIMPLE: iteration 1
smoothSolver:  Solving for alpha.water, Initial residual = 2.47659e-06, Final residual = 1.10638e-10, No Iterations 2
Phase-1 volume fraction = 0.125427  Min(alpha.water) = -5.01292e-11  Max(alpha.water) = 1.00007
MULES: Correcting alpha.water
MULES: Correcting alpha.water
Phase-1 volume fraction = 0.125427  Min(alpha.water) = -7.01683e-05  Max(alpha.water) = 1.00007
DICPCG:  Solving for p_rgh, Initial residual = 0.00372053, Final residual = 8.24399e-05, No Iterations 2
time step continuity errors : sum local = 7.11105e-07, global = 9.06087e-10, cumulative = 4.8791e-07
DICPCG:  Solving for p_rgh, Initial residual = 0.00024579, Final residual = 1.2103e-05, No Iterations 733
time step continuity errors : sum local = 1.04184e-07, global = -6.82375e-10, cumulative = 4.87227e-07
DICPCG:  Solving for p_rgh, Initial residual = 9.37173e-05, Final residual = 2.83709e-06, No Iterations 1001
time step continuity errors : sum local = 2.53709e-08, global = 1.037e-09, cumulative = 4.88264e-07
smoothSolver:  Solving for epsilon, Initial residual = 0.0138849, Final residual = 9.94875e-07, No Iterations 247
smoothSolver:  Solving for k, Initial residual = 0.0056842, Final residual = 9.91781e-07, No Iterations 521
ExecutionTime = 5587.49 s  ClockTime = 5588 s

Courant Number mean: 0.00166731 max: 0.812047
Interface Courant Number mean: 2.48065e-06 max: 0.750836
deltaT = 0.000334775
Time = 0.00714881

PIMPLE: iteration 1
smoothSolver:  Solving for alpha.water, Initial residual = 2.56029e-06, Final residual = 1.48681e-10, No Iterations 2
Phase-1 volume fraction = 0.125427  Min(alpha.water) = -2.62608e-11  Max(alpha.water) = 1.00007
MULES: Correcting alpha.water
MULES: Correcting alpha.water
Phase-1 volume fraction = 0.125427  Min(alpha.water) = -6.71678e-05  Max(alpha.water) = 1.00007
DICPCG:  Solving for p_rgh, Initial residual = 0.00432986, Final residual = 7.987e-05, No Iterations 2
time step continuity errors : sum local = 7.91976e-07, global = 3.58005e-09, cumulative = 4.91844e-07
DICPCG:  Solving for p_rgh, Initial residual = 0.000228046, Final residual = 1.11671e-05, No Iterations 748
time step continuity errors : sum local = 1.1048e-07, global = 1.25831e-09, cumulative = 4.93103e-07
DICPCG:  Solving for p_rgh, Initial residual = 8.87106e-05, Final residual = 4.20415e-06, No Iterations 1001
time step continuity errors : sum local = 4.32178e-08, global = 2.78472e-09, cumulative = 4.95887e-07
smoothSolver:  Solving for epsilon, Initial residual = 0.0148002, Final residual = 9.92621e-07, No Iterations 286
smoothSolver:  Solving for k, Initial residual = 0.00599855, Final residual = 9.91871e-07, No Iterations 590
ExecutionTime = 5990.17 s  ClockTime = 5991 s

Courant Number mean: 0.00201302 max: 1.19285
Interface Courant Number mean: 3.44283e-06 max: 1.01619
deltaT = 0.000280073
Time = 0.00742888

PIMPLE: iteration 1
smoothSolver:  Solving for alpha.water, Initial residual = 2.57738e-06, Final residual = 2.82798e-10, No Iterations 2
Phase-1 volume fraction = 0.125427  Min(alpha.water) = -1.95531e-11  Max(alpha.water) = 1.00007
MULES: Correcting alpha.water
MULES: Correcting alpha.water
Phase-1 volume fraction = 0.125427  Min(alpha.water) = -0.000152072  Max(alpha.water) = 1.00007
DICPCG:  Solving for p_rgh, Initial residual = 0.00418142, Final residual = 7.45386e-05, No Iterations 2
time step continuity errors : sum local = 6.0118e-07, global = 3.509e-09, cumulative = 4.99396e-07
DICPCG:  Solving for p_rgh, Initial residual = 0.000248039, Final residual = 1.19854e-05, No Iterations 683
time step continuity errors : sum local = 9.64364e-08, global = 1.85917e-09, cumulative = 5.01256e-07
DICPCG:  Solving for p_rgh, Initial residual = 9.352e-05, Final residual = 7.37971e-06, No Iterations 1001
time step continuity errors : sum local = 6.09772e-08, global = 2.80116e-09, cumulative = 5.04057e-07
smoothSolver:  Solving for epsilon, Initial residual = 0.011861, Final residual = 9.89529e-07, No Iterations 230
smoothSolver:  Solving for k, Initial residual = 0.00482383, Final residual = 9.98315e-07, No Iterations 475
ExecutionTime = 6355.27 s  ClockTime = 6356 s

Courant Number mean: 0.00179755 max: 0.569135
Interface Courant Number mean: 2.55553e-06 max: 0.569135
deltaT = 0.00032747
Time = 0.00775635

PIMPLE: iteration 1
smoothSolver:  Solving for alpha.water, Initial residual = 2.5865e-06, Final residual = 5.94866e-11, No Iterations 2
Phase-1 volume fraction = 0.125427  Min(alpha.water) = -1.89797e-11  Max(alpha.water) = 1.00007
MULES: Correcting alpha.water
MULES: Correcting alpha.water
Phase-1 volume fraction = 0.125427  Min(alpha.water) = -1.01557e-05  Max(alpha.water) = 1.00007
DICPCG:  Solving for p_rgh, Initial residual = 0.00475701, Final residual = 8.67897e-05, No Iterations 2
time step continuity errors : sum local = 8.43378e-07, global = 4.66673e-09, cumulative = 5.08723e-07
DICPCG:  Solving for p_rgh, Initial residual = 0.000209838, Final residual = 1.03279e-05, No Iterations 762
time step continuity errors : sum local = 1.00047e-07, global = 1.29809e-09, cumulative = 5.10022e-07
DICPCG:  Solving for p_rgh, Initial residual = 7.37536e-05, Final residual = 3.73421e-06, No Iterations 1001
time step continuity errors : sum local = 3.77116e-08, global = 2.34413e-09, cumulative = 5.12366e-07
smoothSolver:  Solving for epsilon, Initial residual = 0.0133203, Final residual = 9.99772e-07, No Iterations 281
smoothSolver:  Solving for k, Initial residual = 0.00536676, Final residual = 9.96476e-07, No Iterations 569
ExecutionTime = 6767.73 s  ClockTime = 6768 s

Courant Number mean: 0.0022419 max: 0.693492
Interface Courant Number mean: 3.25376e-06 max: 0.693492
deltaT = 0.000373838
Time = 0.00813019

PIMPLE: iteration 1
smoothSolver:  Solving for alpha.water, Initial residual = 3.20395e-06, Final residual = 2.94199e-10, No Iterations 2
Phase-1 volume fraction = 0.125427  Min(alpha.water) = -1.45947e-11  Max(alpha.water) = 1.00007
MULES: Correcting alpha.water
MULES: Correcting alpha.water
Phase-1 volume fraction = 0.125427  Min(alpha.water) = -4.96301e-05  Max(alpha.water) = 1.00007
DICPCG:  Solving for p_rgh, Initial residual = 0.00559674, Final residual = 9.96286e-05, No Iterations 2
time step continuity errors : sum local = 1.14431e-06, global = 3.70378e-09, cumulative = 5.16069e-07
DICPCG:  Solving for p_rgh, Initial residual = 0.000262477, Final residual = 1.26247e-05, No Iterations 747
time step continuity errors : sum local = 1.44487e-07, global = -5.35211e-10, cumulative = 5.15534e-07
DICPCG:  Solving for p_rgh, Initial residual = 9.91646e-05, Final residual = 2.562e-06, No Iterations 1001
time step continuity errors : sum local = 3.05303e-08, global = 3.88751e-10, cumulative = 5.15923e-07
smoothSolver:  Solving for epsilon, Initial residual = 0.0145741, Final residual = 9.95552e-07, No Iterations 334
smoothSolver:  Solving for k, Initial residual = 0.00581674, Final residual = 9.92695e-07, No Iterations 662
ExecutionTime = 7196.91 s  ClockTime = 7197 s

Courant Number mean: 0.00272922 max: 1.08044
Interface Courant Number mean: 4.68947e-06 max: 1.08044
deltaT = 0.000343195
Time = 0.00847339

PIMPLE: iteration 1
smoothSolver:  Solving for alpha.water, Initial residual = 3.67918e-06, Final residual = 7.37481e-10, No Iterations 2
Phase-1 volume fraction = 0.125427  Min(alpha.water) = -5.72787e-11  Max(alpha.water) = 1.00007
MULES: Correcting alpha.water
MULES: Correcting alpha.water
Phase-1 volume fraction = 0.125427  Min(alpha.water) = -5.88059e-05  Max(alpha.water) = 1.00007
DICPCG:  Solving for p_rgh, Initial residual = 0.00607098, Final residual = 0.000107338, No Iterations 2
time step continuity errors : sum local = 1.12146e-06, global = 5.58449e-10, cumulative = 5.16481e-07
DICPCG:  Solving for p_rgh, Initial residual = 0.000324447, Final residual = 1.55424e-05, No Iterations 720
time step continuity errors : sum local = 1.61794e-07, global = -2.08888e-09, cumulative = 5.14393e-07
DICPCG:  Solving for p_rgh, Initial residual = 0.000128676, Final residual = 3.02667e-06, No Iterations 1001
time step continuity errors : sum local = 3.24955e-08, global = -9.29172e-10, cumulative = 5.13463e-07
smoothSolver:  Solving for epsilon, Initial residual = 0.0128326, Final residual = 9.92473e-07, No Iterations 302
smoothSolver:  Solving for k, Initial residual = 0.00512722, Final residual = 9.99692e-07, No Iterations 595
ExecutionTime = 7600.32 s  ClockTime = 7601 s

Courant Number mean: 0.00265669 max: 1.27227
Interface Courant Number mean: 4.66531e-06 max: 1.27227
deltaT = 0.000269653
Time = 0.00874304

PIMPLE: iteration 1
smoothSolver:  Solving for alpha.water, Initial residual = 2.97971e-06, Final residual = 5.17291e-10, No Iterations 2
Phase-1 volume fraction = 0.125427  Min(alpha.water) = -1.1911e-05  Max(alpha.water) = 1.00007
MULES: Correcting alpha.water
MULES: Correcting alpha.water
Phase-1 volume fraction = 0.125427  Min(alpha.water) = -1.36503e-05  Max(alpha.water) = 1.00007
DICPCG:  Solving for p_rgh, Initial residual = 0.00536206, Final residual = 0.000100187, No Iterations 2
time step continuity errors : sum local = 7.8363e-07, global = -3.94214e-10, cumulative = 5.13069e-07
DICPCG:  Solving for p_rgh, Initial residual = 0.000252513, Final residual = 1.24609e-05, No Iterations 666
time step continuity errors : sum local = 9.70845e-08, global = -1.7331e-09, cumulative = 5.11336e-07
DICPCG:  Solving for p_rgh, Initial residual = 8.42619e-05, Final residual = 2.28745e-06, No Iterations 1001
time step continuity errors : sum local = 1.82837e-08, global = -4.40237e-10, cumulative = 5.10896e-07
smoothSolver:  Solving for epsilon, Initial residual = 0.00972978, Final residual = 9.93314e-07, No Iterations 224
smoothSolver:  Solving for k, Initial residual = 0.00391846, Final residual = 9.93832e-07, No Iterations 446
ExecutionTime = 7955.61 s  ClockTime = 7956 s

Courant Number mean: 0.00219228 max: 0.484531
Interface Courant Number mean: 2.95132e-06 max: 0.484531
deltaT = 0.00032232
Time = 0.00906536

PIMPLE: iteration 1
smoothSolver:  Solving for alpha.water, Initial residual = 2.52674e-06, Final residual = 1.7142e-10, No Iterations 2
Phase-1 volume fraction = 0.125427  Min(alpha.water) = -7.31048e-12  Max(alpha.water) = 1.00007
MULES: Correcting alpha.water
MULES: Correcting alpha.water
Phase-1 volume fraction = 0.125427  Min(alpha.water) = -0.000196152  Max(alpha.water) = 1.00007
DICPCG:  Solving for p_rgh, Initial residual = 0.00588753, Final residual = 9.33953e-05, No Iterations 2
time step continuity errors : sum local = 9.03714e-07, global = 1.22095e-09, cumulative = 5.12117e-07
DICPCG:  Solving for p_rgh, Initial residual = 0.000157634, Final residual = 7.52669e-06, No Iterations 793
time step continuity errors : sum local = 7.24837e-08, global = -1.51853e-09, cumulative = 5.10598e-07
DICPCG:  Solving for p_rgh, Initial residual = 4.8249e-05, Final residual = 2.60136e-06, No Iterations 1001
time step continuity errors : sum local = 2.61063e-08, global = -1.29664e-10, cumulative = 5.10469e-07
smoothSolver:  Solving for epsilon, Initial residual = 0.011217, Final residual = 9.99683e-07, No Iterations 281
smoothSolver:  Solving for k, Initial residual = 0.00449854, Final residual = 9.93294e-07, No Iterations 549
ExecutionTime = 8356.34 s  ClockTime = 8357 s

Courant Number mean: 0.00275864 max: 0.755271
Interface Courant Number mean: 3.67211e-06 max: 0.739093
deltaT = 0.000362253
Time = 0.00942761

PIMPLE: iteration 1
smoothSolver:  Solving for alpha.water, Initial residual = 2.93877e-06, Final residual = 2.81792e-10, No Iterations 2
Phase-1 volume fraction = 0.125427  Min(alpha.water) = -5.73104e-11  Max(alpha.water) = 1.00006
MULES: Correcting alpha.water
MULES: Correcting alpha.water
Phase-1 volume fraction = 0.125427  Min(alpha.water) = -2.21408e-06  Max(alpha.water) = 1.00006
DICPCG:  Solving for p_rgh, Initial residual = 0.00711588, Final residual = 0.00010989, No Iterations 2
time step continuity errors : sum local = 1.23335e-06, global = 1.5895e-09, cumulative = 5.12058e-07
DICPCG:  Solving for p_rgh, Initial residual = 0.00021551, Final residual = 1.06307e-05, No Iterations 748
time step continuity errors : sum local = 1.18661e-07, global = -1.38263e-09, cumulative = 5.10675e-07
DICPCG:  Solving for p_rgh, Initial residual = 7.25615e-05, Final residual = 2.62697e-06, No Iterations 1001
time step continuity errors : sum local = 3.05047e-08, global = 5.47194e-11, cumulative = 5.1073e-07
smoothSolver:  Solving for epsilon, Initial residual = 0.0121736, Final residual = 9.92921e-07, No Iterations 327
smoothSolver:  Solving for k, Initial residual = 0.00485539, Final residual = 9.96308e-07, No Iterations 627
ExecutionTime = 8775.17 s  ClockTime = 8776 s

Courant Number mean: 0.00326665 max: 1.04113
Interface Courant Number mean: 5.02749e-06 max: 1.04113
deltaT = 0.000346773
Time = 0.00977438

PIMPLE: iteration 1
smoothSolver:  Solving for alpha.water, Initial residual = 3.38792e-06, Final residual = 7.23234e-10, No Iterations 2
Phase-1 volume fraction = 0.125427  Min(alpha.water) = -4.29906e-12  Max(alpha.water) = 1.00006
MULES: Correcting alpha.water
MULES: Correcting alpha.water
Phase-1 volume fraction = 0.125427  Min(alpha.water) = -7.38911e-05  Max(alpha.water) = 1.00006
DICPCG:  Solving for p_rgh, Initial residual = 0.00776825, Final residual = 0.000124768, No Iterations 2
time step continuity errors : sum local = 1.33695e-06, global = 1.29123e-09, cumulative = 5.12021e-07
DICPCG:  Solving for p_rgh, Initial residual = 0.000276008, Final residual = 1.36606e-05, No Iterations 727
time step continuity errors : sum local = 1.45538e-07, global = -8.31244e-10, cumulative = 5.1119e-07
DICPCG:  Solving for p_rgh, Initial residual = 0.000102049, Final residual = 2.35739e-06, No Iterations 1001
time step continuity errors : sum local = 2.595e-08, global = 5.10391e-10, cumulative = 5.11701e-07
smoothSolver:  Solving for epsilon, Initial residual = 0.0113008, Final residual = 9.9105e-07, No Iterations 311
smoothSolver:  Solving for k, Initial residual = 0.00449848, Final residual = 9.97293e-07, No Iterations 593
ExecutionTime = 9180.95 s  ClockTime = 9181 s

Courant Number mean: 0.00328363 max: 1.38237
Interface Courant Number mean: 5.37444e-06 max: 1.28798
deltaT = 0.000249849
Time = 0.0100242

PIMPLE: iteration 1
smoothSolver:  Solving for alpha.water, Initial residual = 2.75333e-06, Final residual = 2.50047e-10, No Iterations 2
Phase-1 volume fraction = 0.125427  Min(alpha.water) = -4.23947e-12  Max(alpha.water) = 1.00006
MULES: Correcting alpha.water
MULES: Correcting alpha.water
Phase-1 volume fraction = 0.125427  Min(alpha.water) = -3.98468e-05  Max(alpha.water) = 1.00006
DICPCG:  Solving for p_rgh, Initial residual = 0.00630589, Final residual = 0.000102234, No Iterations 2
time step continuity errors : sum local = 7.36825e-07, global = 9.71826e-10, cumulative = 5.12672e-07
DICPCG:  Solving for p_rgh, Initial residual = 0.00022393, Final residual = 1.11392e-05, No Iterations 659
time step continuity errors : sum local = 7.98728e-08, global = 2.74076e-10, cumulative = 5.12946e-07
DICPCG:  Solving for p_rgh, Initial residual = 8.22937e-05, Final residual = 3.39626e-06, No Iterations 1001
time step continuity errors : sum local = 2.48788e-08, global = 1.34591e-09, cumulative = 5.14292e-07
smoothSolver:  Solving for epsilon, Initial residual = 0.00789904, Final residual = 9.88927e-07, No Iterations 207
smoothSolver:  Solving for k, Initial residual = 0.00318276, Final residual = 9.91328e-07, No Iterations 401
ExecutionTime = 9524.37 s  ClockTime = 9525 s

Courant Number mean: 0.00246107 max: 0.530794
Interface Courant Number mean: 3.49454e-06 max: 0.429865
deltaT = 0.000296117
Time = 0.0103203

PIMPLE: iteration 1
smoothSolver:  Solving for alpha.water, Initial residual = 2.57169e-06, Final residual = 2.71522e-10, No Iterations 2
Phase-1 volume fraction = 0.125427  Min(alpha.water) = -4.25712e-07  Max(alpha.water) = 1.00006
MULES: Correcting alpha.water
MULES: Correcting alpha.water
Phase-1 volume fraction = 0.125427  Min(alpha.water) = -0.00014185  Max(alpha.water) = 1.00006
DICPCG:  Solving for p_rgh, Initial residual = 0.00723705, Final residual = 0.0001066, No Iterations 2
time step continuity errors : sum local = 9.38927e-07, global = 3.35704e-09, cumulative = 5.17649e-07
DICPCG:  Solving for p_rgh, Initial residual = 0.000168903, Final residual = 8.37203e-06, No Iterations 786
time step continuity errors : sum local = 7.327e-08, global = 7.67465e-10, cumulative = 5.18417e-07
DICPCG:  Solving for p_rgh, Initial residual = 5.18009e-05, Final residual = 3.78506e-06, No Iterations 1001
time step continuity errors : sum local = 3.44753e-08, global = 1.7511e-09, cumulative = 5.20168e-07
smoothSolver:  Solving for epsilon, Initial residual = 0.00907324, Final residual = 9.88478e-07, No Iterations 257
smoothSolver:  Solving for k, Initial residual = 0.00365696, Final residual = 9.95503e-07, No Iterations 489
ExecutionTime = 9908.89 s  ClockTime = 9909 s

Courant Number mean: 0.00303765 max: 0.629622
Interface Courant Number mean: 4.33013e-06 max: 0.599502
deltaT = 0.000342066
Time = 0.0106624

PIMPLE: iteration 1
smoothSolver:  Solving for alpha.water, Initial residual = 3.15804e-06, Final residual = 5.10382e-10, No Iterations 2
Phase-1 volume fraction = 0.125427  Min(alpha.water) = -2.66948e-08  Max(alpha.water) = 1.00006
MULES: Correcting alpha.water
MULES: Correcting alpha.water
Phase-1 volume fraction = 0.125427  Min(alpha.water) = -7.23517e-05  Max(alpha.water) = 1.00006
DICPCG:  Solving for p_rgh, Initial residual = 0.0090523, Final residual = 0.000140054, No Iterations 2
time step continuity errors : sum local = 1.47744e-06, global = 3.42788e-09, cumulative = 5.23596e-07
DICPCG:  Solving for p_rgh, Initial residual = 0.000232104, Final residual = 1.15418e-05, No Iterations 738
time step continuity errors : sum local = 1.20813e-07, global = 1.01079e-10, cumulative = 5.23697e-07
DICPCG:  Solving for p_rgh, Initial residual = 7.70741e-05, Final residual = 2.32291e-06, No Iterations 1001
time step continuity errors : sum local = 2.53109e-08, global = 1.00569e-09, cumulative = 5.24703e-07
smoothSolver:  Solving for epsilon, Initial residual = 0.0101763, Final residual = 9.94604e-07, No Iterations 308
smoothSolver:  Solving for k, Initial residual = 0.0040883, Final residual = 9.9584e-07, No Iterations 578
ExecutionTime = 10313.9 s  ClockTime = 10314 s

Courant Number mean: 0.00365689 max: 0.983802
Interface Courant Number mean: 5.27491e-06 max: 0.955833
deltaT = 0.000345067
Time = 0.0110075

PIMPLE: iteration 1
smoothSolver:  Solving for alpha.water, Initial residual = 3.3106e-06, Final residual = 4.73891e-10, No Iterations 2
Phase-1 volume fraction = 0.125427  Min(alpha.water) = -9.73223e-07  Max(alpha.water) = 1.00006
MULES: Correcting alpha.water
MULES: Correcting alpha.water
Phase-1 volume fraction = 0.125427  Min(alpha.water) = -0.000181924  Max(alpha.water) = 1.00006
DICPCG:  Solving for p_rgh, Initial residual = 0.0101225, Final residual = 0.00015887, No Iterations 2
time step continuity errors : sum local = 1.70183e-06, global = 1.76037e-09, cumulative = 5.26463e-07
DICPCG:  Solving for p_rgh, Initial residual = 0.000265508, Final residual = 1.28415e-05, No Iterations 730
time step continuity errors : sum local = 1.36395e-07, global = -9.80285e-10, cumulative = 5.25483e-07
DICPCG:  Solving for p_rgh, Initial residual = 9.00478e-05, Final residual = 2.39769e-06, No Iterations 1001
time step continuity errors : sum local = 2.63768e-08, global = -3.05199e-11, cumulative = 5.25452e-07
smoothSolver:  Solving for epsilon, Initial residual = 0.0099708, Final residual = 9.96714e-07, No Iterations 312
smoothSolver:  Solving for k, Initial residual = 0.00400794, Final residual = 9.95017e-07, No Iterations 582
ExecutionTime = 10718.5 s  ClockTime = 10719 s

Courant Number mean: 0.00383884 max: 1.22666
Interface Courant Number mean: 5.67929e-06 max: 1.22666
deltaT = 0.000280522
Time = 0.011288

PIMPLE: iteration 1
smoothSolver:  Solving for alpha.water, Initial residual = 2.91019e-06, Final residual = 3.59116e-10, No Iterations 2
Phase-1 volume fraction = 0.125427  Min(alpha.water) = -9.44005e-06  Max(alpha.water) = 1.00006
MULES: Correcting alpha.water
MULES: Correcting alpha.water
Phase-1 volume fraction = 0.125427  Min(alpha.water) = -2.76967e-05  Max(alpha.water) = 1.00006
DICPCG:  Solving for p_rgh, Initial residual = 0.0090283, Final residual = 0.000140776, No Iterations 2
time step continuity errors : sum local = 1.17135e-06, global = 3.51623e-10, cumulative = 5.25804e-07
DICPCG:  Solving for p_rgh, Initial residual = 0.000225999, Final residual = 1.12541e-05, No Iterations 691
time step continuity errors : sum local = 9.29032e-08, global = -1.02956e-09, cumulative = 5.24774e-07
DICPCG:  Solving for p_rgh, Initial residual = 7.81034e-05, Final residual = 2.53046e-06, No Iterations 1001
time step continuity errors : sum local = 2.14353e-08, global = 2.13831e-11, cumulative = 5.24796e-07
smoothSolver:  Solving for epsilon, Initial residual = 0.00788483, Final residual = 9.90179e-07, No Iterations 242
smoothSolver:  Solving for k, Initial residual = 0.00319866, Final residual = 9.9351e-07, No Iterations 454
ExecutionTime = 11082.6 s  ClockTime = 11083 s

Courant Number mean: 0.00323172 max: 0.572176
Interface Courant Number mean: 4.51467e-06 max: 0.433974
deltaT = 0.000328068
Time = 0.0116161

PIMPLE: iteration 1
smoothSolver:  Solving for alpha.water, Initial residual = 3.24971e-06, Final residual = 4.28983e-10, No Iterations 2
Phase-1 volume fraction = 0.125427  Min(alpha.water) = -5.05701e-08  Max(alpha.water) = 1.00006
MULES: Correcting alpha.water
MULES: Correcting alpha.water
Phase-1 volume fraction = 0.125427  Min(alpha.water) = -1.5162e-05  Max(alpha.water) = 1.00006
DICPCG:  Solving for p_rgh, Initial residual = 0.0109439, Final residual = 0.000177314, No Iterations 2
time step continuity errors : sum local = 1.77579e-06, global = 1.52058e-09, cumulative = 5.26316e-07
DICPCG:  Solving for p_rgh, Initial residual = 0.000249981, Final residual = 1.23347e-05, No Iterations 740
time step continuity errors : sum local = 1.22291e-07, global = -1.16739e-09, cumulative = 5.25149e-07
DICPCG:  Solving for p_rgh, Initial residual = 7.18209e-05, Final residual = 2.83705e-06, No Iterations 1001
time step continuity errors : sum local = 2.9315e-08, global = -4.67371e-11, cumulative = 5.25102e-07
smoothSolver:  Solving for epsilon, Initial residual = 0.00897354, Final residual = 9.8699e-07, No Iterations 295
smoothSolver:  Solving for k, Initial residual = 0.00363633, Final residual = 9.94217e-07, No Iterations 545
ExecutionTime = 11480.6 s  ClockTime = 11481 s

Courant Number mean: 0.00391908 max: 0.71388
Interface Courant Number mean: 5.47164e-06 max: 0.71388
deltaT = 0.000372659
Time = 0.0119887

PIMPLE: iteration 1
smoothSolver:  Solving for alpha.water, Initial residual = 3.87139e-06, Final residual = 5.19371e-10, No Iterations 2
Phase-1 volume fraction = 0.125427  Min(alpha.water) = -2.29526e-08  Max(alpha.water) = 1.00006
MULES: Correcting alpha.water
MULES: Correcting alpha.water
Phase-1 volume fraction = 0.125427  Min(alpha.water) = -1.00519e-05  Max(alpha.water) = 1.00006
DICPCG:  Solving for p_rgh, Initial residual = 0.0137058, Final residual = 0.000230971, No Iterations 2
time step continuity errors : sum local = 2.70985e-06, global = 1.45031e-09, cumulative = 5.26552e-07
DICPCG:  Solving for p_rgh, Initial residual = 0.000336102, Final residual = 1.678e-05, No Iterations 731
time step continuity errors : sum local = 1.94465e-07, global = -1.46775e-09, cumulative = 5.25085e-07
DICPCG:  Solving for p_rgh, Initial residual = 0.000101009, Final residual = 2.51603e-06, No Iterations 1001
time step continuity errors : sum local = 3.03557e-08, global = -3.27588e-10, cumulative = 5.24757e-07
smoothSolver:  Solving for epsilon, Initial residual = 0.0099175, Final residual = 9.99401e-07, No Iterations 345
smoothSolver:  Solving for k, Initial residual = 0.00401013, Final residual = 9.96885e-07, No Iterations 631
ExecutionTime = 11900 s  ClockTime = 11901 s

Courant Number mean: 0.00462091 max: 1.7589
Interface Courant Number mean: 6.87261e-06 max: 1.7589
deltaT = 0.000211174
Time = 0.0121999

PIMPLE: iteration 1
smoothSolver:  Solving for alpha.water, Initial residual = 2.48621e-06, Final residual = 8.84323e-11, No Iterations 2
Phase-1 volume fraction = 0.125427  Min(alpha.water) = -4.29928e-06  Max(alpha.water) = 1.00006
MULES: Correcting alpha.water
MULES: Correcting alpha.water
Phase-1 volume fraction = 0.125427  Min(alpha.water) = -4.48239e-06  Max(alpha.water) = 1.00006
DICPCG:  Solving for p_rgh, Initial residual = 0.0084465, Final residual = 0.000131814, No Iterations 2
time step continuity errors : sum local = 7.67442e-07, global = -1.05868e-10, cumulative = 5.24651e-07
DICPCG:  Solving for p_rgh, Initial residual = 0.000203377, Final residual = 1.01016e-05, No Iterations 486
time step continuity errors : sum local = 5.83672e-08, global = 5.34847e-11, cumulative = 5.24705e-07
DICPCG:  Solving for p_rgh, Initial residual = 6.21826e-05, Final residual = 3.69572e-06, No Iterations 1001
time step continuity errors : sum local = 2.15778e-08, global = 7.72177e-10, cumulative = 5.25477e-07
smoothSolver:  Solving for epsilon, Initial residual = 0.00549844, Final residual = 9.9938e-07, No Iterations 170
smoothSolver:  Solving for k, Initial residual = 0.00226217, Final residual = 9.93431e-07, No Iterations 320
ExecutionTime = 12200.2 s  ClockTime = 12201 s

Courant Number mean: 0.00269254 max: 0.347824
Interface Courant Number mean: 3.54567e-06 max: 0.298016
deltaT = 0.000252001
Time = 0.0124519

PIMPLE: iteration 1
smoothSolver:  Solving for alpha.water, Initial residual = 2.66273e-06, Final residual = 9.9602e-09, No Iterations 1
Phase-1 volume fraction = 0.125427  Min(alpha.water) = -1.27828e-06  Max(alpha.water) = 1.00006
MULES: Correcting alpha.water
MULES: Correcting alpha.water
Phase-1 volume fraction = 0.125427  Min(alpha.water) = -4.2012e-06  Max(alpha.water) = 1.00006
DICPCG:  Solving for p_rgh, Initial residual = 0.0105813, Final residual = 0.000175611, No Iterations 2
time step continuity errors : sum local = 1.2497e-06, global = 2.36336e-09, cumulative = 5.2784e-07
DICPCG:  Solving for p_rgh, Initial residual = 0.000222975, Final residual = 1.09054e-05, No Iterations 744
time step continuity errors : sum local = 7.6846e-08, global = 6.22189e-10, cumulative = 5.28462e-07
DICPCG:  Solving for p_rgh, Initial residual = 5.45949e-05, Final residual = 3.25675e-06, No Iterations 1001
time step continuity errors : sum local = 2.3896e-08, global = 1.45657e-09, cumulative = 5.29919e-07
smoothSolver:  Solving for epsilon, Initial residual = 0.00643757, Final residual = 9.93559e-07, No Iterations 213
smoothSolver:  Solving for k, Initial residual = 0.00264575, Final residual = 9.92153e-07, No Iterations 395
ExecutionTime = 12555 s  ClockTime = 12556 s

Courant Number mean: 0.00330833 max: 1.02694
Interface Courant Number mean: 4.48617e-06 max: 1.02694
deltaT = 0.000243819
Time = 0.0126957

PIMPLE: iteration 1
smoothSolver:  Solving for alpha.water, Initial residual = 2.72547e-06, Final residual = 1.26601e-10, No Iterations 2
Phase-1 volume fraction = 0.125427  Min(alpha.water) = -1.20432e-06  Max(alpha.water) = 1.00006
MULES: Correcting alpha.water
MULES: Correcting alpha.water
Phase-1 volume fraction = 0.125427  Min(alpha.water) = -2.33861e-05  Max(alpha.water) = 1.00006
DICPCG:  Solving for p_rgh, Initial residual = 0.0109018, Final residual = 0.000179025, No Iterations 2
time step continuity errors : sum local = 1.22154e-06, global = 2.40361e-09, cumulative = 5.32323e-07
DICPCG:  Solving for p_rgh, Initial residual = 0.000264098, Final residual = 1.30831e-05, No Iterations 687
time step continuity errors : sum local = 8.8365e-08, global = 6.31964e-10, cumulative = 5.32955e-07
DICPCG:  Solving for p_rgh, Initial residual = 7.09751e-05, Final residual = 3.48565e-06, No Iterations 1001
time step continuity errors : sum local = 2.429e-08, global = 1.3091e-09, cumulative = 5.34264e-07
smoothSolver:  Solving for epsilon, Initial residual = 0.00611073, Final residual = 9.87076e-07, No Iterations 205
smoothSolver:  Solving for k, Initial residual = 0.00252018, Final residual = 9.89897e-07, No Iterations 379
ExecutionTime = 12897.3 s  ClockTime = 12898 s

Courant Number mean: 0.00328994 max: 0.476242
Interface Courant Number mean: 4.16582e-06 max: 0.316843
deltaT = 0.00029144
Time = 0.0129872

PIMPLE: iteration 1
smoothSolver:  Solving for alpha.water, Initial residual = 3.24032e-06, Final residual = 1.78986e-10, No Iterations 2
Phase-1 volume fraction = 0.125427  Min(alpha.water) = -1.13539e-06  Max(alpha.water) = 1.00006
MULES: Correcting alpha.water
MULES: Correcting alpha.water
Phase-1 volume fraction = 0.125427  Min(alpha.water) = -2.39855e-06  Max(alpha.water) = 1.00006
DICPCG:  Solving for p_rgh, Initial residual = 0.0141586, Final residual = 0.000244469, No Iterations 2
time step continuity errors : sum local = 2.06321e-06, global = 2.69922e-09, cumulative = 5.36963e-07
DICPCG:  Solving for p_rgh, Initial residual = 0.000300621, Final residual = 1.47233e-05, No Iterations 729
time step continuity errors : sum local = 1.22605e-07, global = -4.67997e-11, cumulative = 5.36916e-07
DICPCG:  Solving for p_rgh, Initial residual = 7.87582e-05, Final residual = 2.49442e-06, No Iterations 1001
time step continuity errors : sum local = 2.16445e-08, global = 5.84829e-10, cumulative = 5.37501e-07
smoothSolver:  Solving for epsilon, Initial residual = 0.0071466, Final residual = 9.94758e-07, No Iterations 256
smoothSolver:  Solving for k, Initial residual = 0.00294745, Final residual = 9.99321e-07, No Iterations 467
ExecutionTime = 13301.7 s  ClockTime = 13302 s

Courant Number mean: 0.00404703 max: 0.704705
Interface Courant Number mean: 5.29455e-06 max: 0.704705
deltaT = 0.000330472
Time = 0.0133176

PIMPLE: iteration 1
smoothSolver:  Solving for alpha.water, Initial residual = 3.84005e-06, Final residual = 4.40888e-10, No Iterations 2
Phase-1 volume fraction = 0.125427  Min(alpha.water) = -1.05363e-06  Max(alpha.water) = 1.00006
MULES: Correcting alpha.water
MULES: Correcting alpha.water
Phase-1 volume fraction = 0.125427  Min(alpha.water) = -1.05363e-06  Max(alpha.water) = 1.00006
DICPCG:  Solving for p_rgh, Initial residual = 0.0181146, Final residual = 0.00032952, No Iterations 2
time step continuity errors : sum local = 3.22701e-06, global = 1.46271e-09, cumulative = 5.38964e-07
DICPCG:  Solving for p_rgh, Initial residual = 0.000407296, Final residual = 2.01073e-05, No Iterations 723
time step continuity errors : sum local = 1.93678e-07, global = -1.4271e-09, cumulative = 5.37537e-07
DICPCG:  Solving for p_rgh, Initial residual = 0.000115392, Final residual = 3.02954e-06, No Iterations 1001
time step continuity errors : sum local = 3.03873e-08, global = -6.77697e-10, cumulative = 5.36859e-07
smoothSolver:  Solving for epsilon, Initial residual = 0.00792578, Final residual = 9.88985e-07, No Iterations 300
smoothSolver:  Solving for k, Initial residual = 0.00326695, Final residual = 9.96972e-07, No Iterations 541
ExecutionTime = 13712.1 s  ClockTime = 13713 s

Courant Number mean: 0.00472686 max: 1.36811
Interface Courant Number mean: 6.16362e-06 max: 1.16095
deltaT = 0.000241331
Time = 0.013559

PIMPLE: iteration 1
smoothSolver:  Solving for alpha.water, Initial residual = 2.90059e-06, Final residual = 7.64694e-11, No Iterations 2
Phase-1 volume fraction = 0.125427  Min(alpha.water) = -1.00114e-06  Max(alpha.water) = 1.00006
MULES: Correcting alpha.water
MULES: Correcting alpha.water
Phase-1 volume fraction = 0.125427  Min(alpha.water) = -1.94528e-05  Max(alpha.water) = 1.00006
DICPCG:  Solving for p_rgh, Initial residual = 0.0134663, Final residual = 0.000264051, No Iterations 2
time step continuity errors : sum local = 1.74725e-06, global = -3.72475e-10, cumulative = 5.36486e-07
DICPCG:  Solving for p_rgh, Initial residual = 0.000353953, Final residual = 1.75794e-05, No Iterations 24
time step continuity errors : sum local = 1.15541e-07, global = 3.37377e-10, cumulative = 5.36824e-07
DICPCG:  Solving for p_rgh, Initial residual = 9.53096e-05, Final residual = 2.69767e-06, No Iterations 1001
time step continuity errors : sum local = 1.77257e-08, global = -5.33675e-10, cumulative = 5.3629e-07
smoothSolver:  Solving for epsilon, Initial residual = 0.00567174, Final residual = 9.90035e-07, No Iterations 203
smoothSolver:  Solving for k, Initial residual = 0.00236539, Final residual = 9.9589e-07, No Iterations 371
ExecutionTime = 13969.5 s  ClockTime = 13970 s

Courant Number mean: 0.00353933 max: 0.439096
Interface Courant Number mean: 4.32006e-06 max: 0.439096
deltaT = 0.000289215
Time = 0.0138482

PIMPLE: iteration 1
smoothSolver:  Solving for alpha.water, Initial residual = 3.48438e-06, Final residual = 1.50748e-10, No Iterations 2
Phase-1 volume fraction = 0.125427  Min(alpha.water) = -9.38178e-07  Max(alpha.water) = 1.00006
MULES: Correcting alpha.water
MULES: Correcting alpha.water
Phase-1 volume fraction = 0.125427  Min(alpha.water) = -1.03687e-05  Max(alpha.water) = 1.00006
DICPCG:  Solving for p_rgh, Initial residual = 0.0147742, Final residual = 0.000334877, No Iterations 2
time step continuity errors : sum local = 2.87733e-06, global = -1.18326e-08, cumulative = 5.24457e-07
DICPCG:  Solving for p_rgh, Initial residual = 0.000399918, Final residual = 1.99769e-05, No Iterations 653
time step continuity errors : sum local = 1.70384e-07, global = -1.82815e-09, cumulative = 5.22629e-07
DICPCG:  Solving for p_rgh, Initial residual = 0.000103894, Final residual = 1.93295e-06, No Iterations 1001
time step continuity errors : sum local = 1.68548e-08, global = -4.04201e-10, cumulative = 5.22225e-07
smoothSolver:  Solving for epsilon, Initial residual = 0.00668408, Final residual = 9.85469e-07, No Iterations 255
smoothSolver:  Solving for k, Initial residual = 0.00277871, Final residual = 9.92748e-07, No Iterations 460
ExecutionTime = 14331.6 s  ClockTime = 14332 s

Courant Number mean: 0.00435627 max: 0.858519
Interface Courant Number mean: 5.33055e-06 max: 0.858519
deltaT = 0.000322784
Time = 0.014171

PIMPLE: iteration 1
smoothSolver:  Solving for alpha.water, Initial residual = 4.06719e-06, Final residual = 4.42681e-10, No Iterations 2
Phase-1 volume fraction = 0.125427  Min(alpha.water) = -8.74137e-07  Max(alpha.water) = 1.00006
MULES: Correcting alpha.water
MULES: Correcting alpha.water
Phase-1 volume fraction = 0.125427  Min(alpha.water) = -8.74137e-07  Max(alpha.water) = 1.00006
DICPCG:  Solving for p_rgh, Initial residual = 0.0146773, Final residual = 0.000258155, No Iterations 2
time step continuity errors : sum local = 2.56786e-06, global = 2.02803e-09, cumulative = 5.24253e-07
DICPCG:  Solving for p_rgh, Initial residual = 0.000343183, Final residual = 1.6686e-05, No Iterations 724
time step continuity errors : sum local = 1.64278e-07, global = -1.28485e-09, cumulative = 5.22968e-07
DICPCG:  Solving for p_rgh, Initial residual = 0.000108648, Final residual = 2.21483e-06, No Iterations 1001
time step continuity errors : sum local = 2.26736e-08, global = -5.01933e-10, cumulative = 5.22466e-07
smoothSolver:  Solving for epsilon, Initial residual = 0.00729378, Final residual = 9.90975e-07, No Iterations 292
smoothSolver:  Solving for k, Initial residual = 0.00306245, Final residual = 9.91518e-07, No Iterations 523
ExecutionTime = 14721.8 s  ClockTime = 14722 s

Courant Number mean: 0.00499715 max: 0.966267
Interface Courant Number mean: 5.99023e-06 max: 0.833899
deltaT = 0.00033175
Time = 0.0145027

PIMPLE: iteration 1
smoothSolver:  Solving for alpha.water, Initial residual = 4.23031e-06, Final residual = 2.61333e-10, No Iterations 2
Phase-1 volume fraction = 0.125427  Min(alpha.water) = -8.10913e-07  Max(alpha.water) = 1.00006
MULES: Correcting alpha.water
MULES: Correcting alpha.water
Phase-1 volume fraction = 0.125427  Min(alpha.water) = -7.8539e-06  Max(alpha.water) = 1.00006
DICPCG:  Solving for p_rgh, Initial residual = 0.0146142, Final residual = 0.000239769, No Iterations 2
time step continuity errors : sum local = 2.49343e-06, global = 9.16859e-10, cumulative = 5.23383e-07
DICPCG:  Solving for p_rgh, Initial residual = 0.000321491, Final residual = 1.60399e-05, No Iterations 691
time step continuity errors : sum local = 1.64939e-07, global = -1.45744e-09, cumulative = 5.21926e-07
DICPCG:  Solving for p_rgh, Initial residual = 0.00010172, Final residual = 2.43169e-06, No Iterations 1001
time step continuity errors : sum local = 2.58937e-08, global = -2.11858e-10, cumulative = 5.21714e-07
smoothSolver:  Solving for epsilon, Initial residual = 0.00734861, Final residual = 9.94419e-07, No Iterations 302
smoothSolver:  Solving for k, Initial residual = 0.00306698, Final residual = 9.9927e-07, No Iterations 538
ExecutionTime = 15111.4 s  ClockTime = 15112 s

Courant Number mean: 0.00527728 max: 0.846529
Interface Courant Number mean: 6.38505e-06 max: 0.846529
deltaT = 0.000369763
Time = 0.0148725

PIMPLE: iteration 1
smoothSolver:  Solving for alpha.water, Initial residual = 4.81832e-06, Final residual = 6.4682e-10, No Iterations 2
Phase-1 volume fraction = 0.125427  Min(alpha.water) = -7.4639e-07  Max(alpha.water) = 1.00006
MULES: Correcting alpha.water
MULES: Correcting alpha.water
Phase-1 volume fraction = 0.125427  Min(alpha.water) = -1.88364e-05  Max(alpha.water) = 1.00006
DICPCG:  Solving for p_rgh, Initial residual = 0.0164376, Final residual = 0.000262364, No Iterations 2
time step continuity errors : sum local = 3.1295e-06, global = 1.5438e-09, cumulative = 5.23258e-07
DICPCG:  Solving for p_rgh, Initial residual = 0.000363709, Final residual = 1.80469e-05, No Iterations 715
time step continuity errors : sum local = 2.12401e-07, global = -8.40584e-10, cumulative = 5.22417e-07
DICPCG:  Solving for p_rgh, Initial residual = 0.000114801, Final residual = 2.66536e-06, No Iterations 1001
time step continuity errors : sum local = 3.26171e-08, global = 1.84092e-10, cumulative = 5.22601e-07
smoothSolver:  Solving for epsilon, Initial residual = 0.00800066, Final residual = 9.9861e-07, No Iterations 345
smoothSolver:  Solving for k, Initial residual = 0.00334601, Final residual = 9.99417e-07, No Iterations 610
ExecutionTime = 15525.4 s  ClockTime = 15526 s

Courant Number mean: 0.00604722 max: 1.00104
Interface Courant Number mean: 7.55325e-06 max: 1.00104
deltaT = 0.000365912
Time = 0.0152384

PIMPLE: iteration 1
smoothSolver:  Solving for alpha.water, Initial residual = 4.92253e-06, Final residual = 5.22546e-10, No Iterations 2
Phase-1 volume fraction = 0.125427  Min(alpha.water) = -6.86447e-07  Max(alpha.water) = 1.00005
MULES: Correcting alpha.water
MULES: Correcting alpha.water
Phase-1 volume fraction = 0.125427  Min(alpha.water) = -1.48114e-06  Max(alpha.water) = 1.00005
DICPCG:  Solving for p_rgh, Initial residual = 0.0170225, Final residual = 0.000265024, No Iterations 2
time step continuity errors : sum local = 3.13491e-06, global = 1.38695e-09, cumulative = 5.23988e-07
DICPCG:  Solving for p_rgh, Initial residual = 0.000389008, Final residual = 1.92303e-05, No Iterations 689
time step continuity errors : sum local = 2.24244e-07, global = -3.87286e-10, cumulative = 5.23601e-07
DICPCG:  Solving for p_rgh, Initial residual = 0.000130875, Final residual = 2.72607e-06, No Iterations 1001
time step continuity errors : sum local = 3.28796e-08, global = 6.51488e-10, cumulative = 5.24252e-07
smoothSolver:  Solving for epsilon, Initial residual = 0.00775197, Final residual = 9.95333e-07, No Iterations 341
smoothSolver:  Solving for k, Initial residual = 0.0032536, Final residual = 9.98181e-07, No Iterations 601
ExecutionTime = 15933.8 s  ClockTime = 15934 s

Courant Number mean: 0.00614735 max: 1.58227
Interface Courant Number mean: 8.1743e-06 max: 1.58227
deltaT = 0.000230209
Time = 0.0154686

PIMPLE: iteration 1
smoothSolver:  Solving for alpha.water, Initial residual = 3.29667e-06, Final residual = 9.34366e-11, No Iterations 2
Phase-1 volume fraction = 0.125427  Min(alpha.water) = -6.50942e-07  Max(alpha.water) = 1.00005
MULES: Correcting alpha.water
MULES: Correcting alpha.water
Phase-1 volume fraction = 0.125427  Min(alpha.water) = -6.50942e-07  Max(alpha.water) = 1.00005
DICPCG:  Solving for p_rgh, Initial residual = 0.0113015, Final residual = 0.000549615, No Iterations 1
time step continuity errors : sum local = 3.66556e-06, global = 4.39997e-10, cumulative = 5.24692e-07
DICPCG:  Solving for p_rgh, Initial residual = 0.000682792, Final residual = 2.91607e-05, No Iterations 8
time step continuity errors : sum local = 1.9259e-07, global = 1.49687e-09, cumulative = 5.26189e-07
DICPCG:  Solving for p_rgh, Initial residual = 0.000164951, Final residual = 5.40472e-06, No Iterations 1001
time step continuity errors : sum local = 3.56915e-08, global = 1.34468e-09, cumulative = 5.27534e-07
smoothSolver:  Solving for epsilon, Initial residual = 0.0047849, Final residual = 9.95514e-07, No Iterations 192
smoothSolver:  Solving for k, Initial residual = 0.00204178, Final residual = 9.9742e-07, No Iterations 345
ExecutionTime = 16182.2 s  ClockTime = 16183 s

Courant Number mean: 0.00395014 max: 0.428195
Interface Courant Number mean: 5.05621e-06 max: 0.392518
deltaT = 0.000274059
Time = 0.0157427

PIMPLE: iteration 1
smoothSolver:  Solving for alpha.water, Initial residual = 3.83489e-06, Final residual = 1.34151e-10, No Iterations 2
Phase-1 volume fraction = 0.125427  Min(alpha.water) = -6.10623e-07  Max(alpha.water) = 1.00005
MULES: Correcting alpha.water
MULES: Correcting alpha.water
Phase-1 volume fraction = 0.125427  Min(alpha.water) = -6.10623e-07  Max(alpha.water) = 1.00005
DICPCG:  Solving for p_rgh, Initial residual = 0.0139695, Final residual = 0.000219281, No Iterations 2
time step continuity errors : sum local = 1.80366e-06, global = 2.49219e-09, cumulative = 5.30026e-07
DICPCG:  Solving for p_rgh, Initial residual = 0.00028208, Final residual = 1.37967e-05, No Iterations 724
time step continuity errors : sum local = 1.12091e-07, global = 9.55615e-10, cumulative = 5.30982e-07
DICPCG:  Solving for p_rgh, Initial residual = 7.46314e-05, Final residual = 3.38773e-06, No Iterations 1001
time step continuity errors : sum local = 2.82844e-08, global = 1.66982e-09, cumulative = 5.32652e-07
smoothSolver:  Solving for epsilon, Initial residual = 0.00559785, Final residual = 9.91513e-07, No Iterations 239
smoothSolver:  Solving for k, Initial residual = 0.00239244, Final residual = 9.92798e-07, No Iterations 425
ExecutionTime = 16544.4 s  ClockTime = 16545 s

Courant Number mean: 0.00480788 max: 1.06447
Interface Courant Number mean: 6.24456e-06 max: 1.06447
deltaT = 0.000255652
Time = 0.0159983

PIMPLE: iteration 1
smoothSolver:  Solving for alpha.water, Initial residual = 3.78068e-06, Final residual = 1.46128e-10, No Iterations 2
Phase-1 volume fraction = 0.125427  Min(alpha.water) = -5.75076e-07  Max(alpha.water) = 1.00005
MULES: Correcting alpha.water
MULES: Correcting alpha.water
Phase-1 volume fraction = 0.125427  Min(alpha.water) = -3.87557e-06  Max(alpha.water) = 1.00005
DICPCG:  Solving for p_rgh, Initial residual = 0.0138425, Final residual = 0.000686929, No Iterations 1
time step continuity errors : sum local = 5.13723e-06, global = 2.13441e-09, cumulative = 5.34786e-07
DICPCG:  Solving for p_rgh, Initial residual = 0.000837639, Final residual = 3.73554e-05, No Iterations 7
time step continuity errors : sum local = 2.75928e-07, global = 3.59715e-09, cumulative = 5.38383e-07
DICPCG:  Solving for p_rgh, Initial residual = 0.000203874, Final residual = 2.85435e-06, No Iterations 1001
time step continuity errors : sum local = 2.10819e-08, global = 1.34248e-09, cumulative = 5.39726e-07
smoothSolver:  Solving for epsilon, Initial residual = 0.00514793, Final residual = 9.96184e-07, No Iterations 219
smoothSolver:  Solving for k, Initial residual = 0.00220856, Final residual = 9.95943e-07, No Iterations 390
ExecutionTime = 16805.3 s  ClockTime = 16806 s

Courant Number mean: 0.00457835 max: 0.831264
Interface Courant Number mean: 5.73782e-06 max: 0.831264
deltaT = 0.000285728
Time = 0.016284

PIMPLE: iteration 1
smoothSolver:  Solving for alpha.water, Initial residual = 4.16492e-06, Final residual = 1.9284e-10, No Iterations 2
Phase-1 volume fraction = 0.125427  Min(alpha.water) = -5.37506e-07  Max(alpha.water) = 1.00005
MULES: Correcting alpha.water
MULES: Correcting alpha.water
Phase-1 volume fraction = 0.125427  Min(alpha.water) = -1.28583e-05  Max(alpha.water) = 1.00005
DICPCG:  Solving for p_rgh, Initial residual = 0.0161487, Final residual = 0.000254869, No Iterations 2
time step continuity errors : sum local = 2.21343e-06, global = 4.11197e-10, cumulative = 5.40137e-07
DICPCG:  Solving for p_rgh, Initial residual = 0.000330714, Final residual = 1.59998e-05, No Iterations 12
time step continuity errors : sum local = 1.36916e-07, global = -7.34911e-10, cumulative = 5.39402e-07
DICPCG:  Solving for p_rgh, Initial residual = 8.96694e-05, Final residual = 1.20155e-06, No Iterations 1001
time step continuity errors : sum local = 1.02797e-08, global = 3.06078e-10, cumulative = 5.39708e-07
smoothSolver:  Solving for epsilon, Initial residual = 0.00565025, Final residual = 9.88725e-07, No Iterations 252
smoothSolver:  Solving for k, Initial residual = 0.0024323, Final residual = 9.92933e-07, No Iterations 445
ExecutionTime = 17082.2 s  ClockTime = 17083 s

Courant Number mean: 0.00522621 max: 0.766592
Interface Courant Number mean: 6.49138e-06 max: 0.766592
deltaT = 0.000321104
Time = 0.0166051

PIMPLE: iteration 1
smoothSolver:  Solving for alpha.water, Initial residual = 4.79334e-06, Final residual = 4.04684e-10, No Iterations 2
Phase-1 volume fraction = 0.125427  Min(alpha.water) = -4.97988e-07  Max(alpha.water) = 1.00005
MULES: Correcting alpha.water
MULES: Correcting alpha.water
Phase-1 volume fraction = 0.125427  Min(alpha.water) = -1.69985e-06  Max(alpha.water) = 1.00005
DICPCG:  Solving for p_rgh, Initial residual = 0.0199978, Final residual = 0.000328599, No Iterations 2
time step continuity errors : sum local = 3.22317e-06, global = 1.64846e-09, cumulative = 5.41356e-07
DICPCG:  Solving for p_rgh, Initial residual = 0.000429447, Final residual = 2.09318e-05, No Iterations 683
time step continuity errors : sum local = 2.01556e-07, global = -1.06144e-09, cumulative = 5.40295e-07
DICPCG:  Solving for p_rgh, Initial residual = 0.000124748, Final residual = 2.25824e-06, No Iterations 1001
time step continuity errors : sum local = 2.25383e-08, global = -6.95132e-10, cumulative = 5.396e-07
smoothSolver:  Solving for epsilon, Initial residual = 0.006228, Final residual = 9.90931e-07, No Iterations 291
smoothSolver:  Solving for k, Initial residual = 0.00268973, Final residual = 9.96079e-07, No Iterations 510
ExecutionTime = 17464.2 s  ClockTime = 17465 s

Courant Number mean: 0.00600253 max: 0.848492
Interface Courant Number mean: 7.67939e-06 max: 0.848492
deltaT = 0.000355264
Time = 0.0169604

PIMPLE: iteration 1
smoothSolver:  Solving for alpha.water, Initial residual = 5.44329e-06, Final residual = 5.14953e-10, No Iterations 2
Phase-1 volume fraction = 0.125427  Min(alpha.water) = -4.57136e-07  Max(alpha.water) = 1.00005
MULES: Correcting alpha.water
MULES: Correcting alpha.water
Phase-1 volume fraction = 0.125427  Min(alpha.water) = -4.57136e-07  Max(alpha.water) = 1.00005
DICPCG:  Solving for p_rgh, Initial residual = 0.0248666, Final residual = 0.000431788, No Iterations 2
time step continuity errors : sum local = 4.73032e-06, global = -1.32429e-10, cumulative = 5.39467e-07
DICPCG:  Solving for p_rgh, Initial residual = 0.000560649, Final residual = 2.80205e-05, No Iterations 632
time step continuity errors : sum local = 2.99949e-07, global = -2.59596e-09, cumulative = 5.36871e-07
DICPCG:  Solving for p_rgh, Initial residual = 0.000157749, Final residual = 3.24712e-06, No Iterations 1001
time step continuity errors : sum local = 3.62255e-08, global = -1.83791e-09, cumulative = 5.35034e-07
smoothSolver:  Solving for epsilon, Initial residual = 0.00677544, Final residual = 9.97484e-07, No Iterations 329
smoothSolver:  Solving for k, Initial residual = 0.00292635, Final residual = 9.93448e-07, No Iterations 574
ExecutionTime = 17858.2 s  ClockTime = 17859 s

Courant Number mean: 0.0067919 max: 1.09591
Interface Courant Number mean: 8.94332e-06 max: 1.07697
deltaT = 0.000323918
Time = 0.0172843

PIMPLE: iteration 1
smoothSolver:  Solving for alpha.water, Initial residual = 5.07906e-06, Final residual = 3.02266e-10, No Iterations 2
Phase-1 volume fraction = 0.125427  Min(alpha.water) = -4.22164e-07  Max(alpha.water) = 1.00005
MULES: Correcting alpha.water
MULES: Correcting alpha.water
Phase-1 volume fraction = 0.125427  Min(alpha.water) = -4.22164e-07  Max(alpha.water) = 1.00005
DICPCG:  Solving for p_rgh, Initial residual = 0.0242132, Final residual = 0.000464229, No Iterations 2
time step continuity errors : sum local = 4.50999e-06, global = -1.04565e-09, cumulative = 5.33988e-07
DICPCG:  Solving for p_rgh, Initial residual = 0.000597274, Final residual = 2.9431e-05, No Iterations 614
time step continuity errors : sum local = 2.82377e-07, global = -2.49614e-09, cumulative = 5.31492e-07
DICPCG:  Solving for p_rgh, Initial residual = 0.000170017, Final residual = 2.88308e-06, No Iterations 1001
time step continuity errors : sum local = 2.8558e-08, global = -1.4601e-09, cumulative = 5.30032e-07
smoothSolver:  Solving for epsilon, Initial residual = 0.00605798, Final residual = 9.92586e-07, No Iterations 294
smoothSolver:  Solving for k, Initial residual = 0.00263916, Final residual = 9.95853e-07, No Iterations 513
ExecutionTime = 18232.3 s  ClockTime = 18233 s

Courant Number mean: 0.00632638 max: 0.94943
Interface Courant Number mean: 7.94343e-06 max: 0.803492
deltaT = 0.000340788
Time = 0.0176251

PIMPLE: iteration 1
smoothSolver:  Solving for alpha.water, Initial residual = 5.39616e-06, Final residual = 3.70601e-10, No Iterations 2
Phase-1 volume fraction = 0.125427  Min(alpha.water) = -3.87783e-07  Max(alpha.water) = 1.00005
MULES: Correcting alpha.water
MULES: Correcting alpha.water
Phase-1 volume fraction = 0.125427  Min(alpha.water) = -1.64085e-06  Max(alpha.water) = 1.00005
DICPCG:  Solving for p_rgh, Initial residual = 0.0198506, Final residual = 0.000392655, No Iterations 2
time step continuity errors : sum local = 4.26597e-06, global = -1.52527e-08, cumulative = 5.14779e-07
DICPCG:  Solving for p_rgh, Initial residual = 0.000518113, Final residual = 2.54453e-05, No Iterations 685
time step continuity errors : sum local = 2.72535e-07, global = -2.0118e-09, cumulative = 5.12767e-07
DICPCG:  Solving for p_rgh, Initial residual = 0.000151927, Final residual = 2.65176e-06, No Iterations 1001
time step continuity errors : sum local = 2.95075e-08, global = -4.33972e-10, cumulative = 5.12333e-07
smoothSolver:  Solving for epsilon, Initial residual = 0.00628901, Final residual = 9.9152e-07, No Iterations 313
smoothSolver:  Solving for k, Initial residual = 0.002737, Final residual = 9.93428e-07, No Iterations 544
ExecutionTime = 18624.5 s  ClockTime = 18625 s

Courant Number mean: 0.00680046 max: 0.896674
Interface Courant Number mean: 8.50516e-06 max: 0.882027
deltaT = 0.000376452
Time = 0.0180016

PIMPLE: iteration 1
smoothSolver:  Solving for alpha.water, Initial residual = 6.08054e-06, Final residual = 1.03468e-09, No Iterations 2
Phase-1 volume fraction = 0.125427  Min(alpha.water) = -3.51758e-07  Max(alpha.water) = 1.00005
MULES: Correcting alpha.water
MULES: Correcting alpha.water
Phase-1 volume fraction = 0.125427  Min(alpha.water) = -3.87029e-05  Max(alpha.water) = 1.00005
DICPCG:  Solving for p_rgh, Initial residual = 0.0220633, Final residual = 0.000359193, No Iterations 2
time step continuity errors : sum local = 4.43851e-06, global = 1.98122e-09, cumulative = 5.14314e-07
DICPCG:  Solving for p_rgh, Initial residual = 0.000495112, Final residual = 2.46523e-05, No Iterations 693
time step continuity errors : sum local = 2.99337e-07, global = -2.13052e-10, cumulative = 5.14101e-07
DICPCG:  Solving for p_rgh, Initial residual = 0.000153797, Final residual = 2.8168e-06, No Iterations 1001
time step continuity errors : sum local = 3.55596e-08, global = 4.79825e-10, cumulative = 5.14581e-07
smoothSolver:  Solving for epsilon, Initial residual = 0.00683102, Final residual = 9.97733e-07, No Iterations 353
smoothSolver:  Solving for k, Initial residual = 0.00300231, Final residual = 9.98673e-07, No Iterations 610
ExecutionTime = 19037.7 s  ClockTime = 19038 s

Courant Number mean: 0.00767957 max: 1.1859
Interface Courant Number mean: 1.01231e-05 max: 1.1121
deltaT = 0.000316816
Time = 0.0183184

PIMPLE: iteration 1
smoothSolver:  Solving for alpha.water, Initial residual = 5.23386e-06, Final residual = 4.90215e-10, No Iterations 2
Phase-1 volume fraction = 0.125427  Min(alpha.water) = -3.2014e-07  Max(alpha.water) = 1.00005
MULES: Correcting alpha.water
MULES: Correcting alpha.water
Phase-1 volume fraction = 0.125427  Min(alpha.water) = -8.59063e-05  Max(alpha.water) = 1.00005
DICPCG:  Solving for p_rgh, Initial residual = 0.0189568, Final residual = 0.000287175, No Iterations 2
time step continuity errors : sum local = 2.88535e-06, global = 1.80418e-09, cumulative = 5.16385e-07
DICPCG:  Solving for p_rgh, Initial residual = 0.000402654, Final residual = 1.94743e-05, No Iterations 650
time step continuity errors : sum local = 1.92627e-07, global = 4.32708e-10, cumulative = 5.16818e-07
DICPCG:  Solving for p_rgh, Initial residual = 0.00012635, Final residual = 2.8175e-06, No Iterations 1001
time step continuity errors : sum local = 2.86206e-08, global = 1.34025e-09, cumulative = 5.18158e-07
smoothSolver:  Solving for epsilon, Initial residual = 0.00565544, Final residual = 9.91095e-07, No Iterations 286
smoothSolver:  Solving for k, Initial residual = 0.00248474, Final residual = 9.99089e-07, No Iterations 496
ExecutionTime = 19412.4 s  ClockTime = 19413 s

Courant Number mean: 0.00659382 max: 0.970184
Interface Courant Number mean: 8.46898e-06 max: 0.970184
deltaT = 0.000323282
Time = 0.0186417

PIMPLE: iteration 1
smoothSolver:  Solving for alpha.water, Initial residual = 5.42979e-06, Final residual = 6.55841e-10, No Iterations 2
Phase-1 volume fraction = 0.125427  Min(alpha.water) = -2.88645e-07  Max(alpha.water) = 1.00005
MULES: Correcting alpha.water
MULES: Correcting alpha.water
Phase-1 volume fraction = 0.125427  Min(alpha.water) = -7.43251e-05  Max(alpha.water) = 1.00005
DICPCG:  Solving for p_rgh, Initial residual = 0.019972, Final residual = 0.000302624, No Iterations 2
time step continuity errors : sum local = 3.09805e-06, global = 2.81144e-09, cumulative = 5.2097e-07
DICPCG:  Solving for p_rgh, Initial residual = 0.000408836, Final residual = 2.02239e-05, No Iterations 693
time step continuity errors : sum local = 2.03463e-07, global = 1.15033e-09, cumulative = 5.2212e-07
DICPCG:  Solving for p_rgh, Initial residual = 0.000123521, Final residual = 3.25769e-06, No Iterations 1001
time step continuity errors : sum local = 3.39485e-08, global = 1.95615e-09, cumulative = 5.24076e-07
smoothSolver:  Solving for epsilon, Initial residual = 0.00566564, Final residual = 9.92814e-07, No Iterations 293
smoothSolver:  Solving for k, Initial residual = 0.0025049, Final residual = 9.99856e-07, No Iterations 507
ExecutionTime = 19795.2 s  ClockTime = 19796 s

Courant Number mean: 0.00686068 max: 0.872212
Interface Courant Number mean: 8.76341e-06 max: 0.872212
deltaT = 0.000356345
Time = 0.018998

PIMPLE: iteration 1
smoothSolver:  Solving for alpha.water, Initial residual = 6.09436e-06, Final residual = 7.24214e-10, No Iterations 2
Phase-1 volume fraction = 0.125427  Min(alpha.water) = -2.57262e-07  Max(alpha.water) = 1.00005
MULES: Correcting alpha.water
MULES: Correcting alpha.water
Phase-1 volume fraction = 0.125427  Min(alpha.water) = -4.54335e-06  Max(alpha.water) = 1.00005
DICPCG:  Solving for p_rgh, Initial residual = 0.0232354, Final residual = 0.000360865, No Iterations 2
time step continuity errors : sum local = 4.14996e-06, global = 3.53014e-09, cumulative = 5.27606e-07
DICPCG:  Solving for p_rgh, Initial residual = 0.00048014, Final residual = 2.38238e-05, No Iterations 646
time step continuity errors : sum local = 2.68349e-07, global = 1.0347e-09, cumulative = 5.28641e-07
DICPCG:  Solving for p_rgh, Initial residual = 0.000141609, Final residual = 2.4971e-06, No Iterations 1001
time step continuity errors : sum local = 2.92205e-08, global = 1.5867e-09, cumulative = 5.30228e-07
smoothSolver:  Solving for epsilon, Initial residual = 0.00612483, Final residual = 9.94067e-07, No Iterations 330
smoothSolver:  Solving for k, Initial residual = 0.00272116, Final residual = 9.91726e-07, No Iterations 569
ExecutionTime = 20189 s  ClockTime = 20190 s

Courant Number mean: 0.00771217 max: 0.926268
Interface Courant Number mean: 1.00824e-05 max: 0.926268
deltaT = 0.000382741
Time = 0.0193807

PIMPLE: iteration 1
smoothSolver:  Solving for alpha.water, Initial residual = 6.66955e-06, Final residual = 9.28446e-10, No Iterations 2
Phase-1 volume fraction = 0.125427  Min(alpha.water) = -2.32297e-07  Max(alpha.water) = 1.00005
MULES: Correcting alpha.water
MULES: Correcting alpha.water
Phase-1 volume fraction = 0.125427  Min(alpha.water) = -2.4449e-06  Max(alpha.water) = 1.00005
DICPCG:  Solving for p_rgh, Initial residual = 0.0272082, Final residual = 0.000439278, No Iterations 2
time step continuity errors : sum local = 5.48694e-06, global = 2.52389e-09, cumulative = 5.32752e-07
DICPCG:  Solving for p_rgh, Initial residual = 0.000595402, Final residual = 2.95652e-05, No Iterations 619
time step continuity errors : sum local = 3.60323e-07, global = -2.92782e-10, cumulative = 5.32459e-07
DICPCG:  Solving for p_rgh, Initial residual = 0.000177988, Final residual = 2.41892e-06, No Iterations 1001
time step continuity errors : sum local = 3.05728e-08, global = 4.75294e-10, cumulative = 5.32934e-07
smoothSolver:  Solving for epsilon, Initial residual = 0.0064936, Final residual = 9.93605e-07, No Iterations 360
smoothSolver:  Solving for k, Initial residual = 0.00288259, Final residual = 9.98638e-07, No Iterations 617
ExecutionTime = 20595 s  ClockTime = 20596 s

Courant Number mean: 0.00844959 max: 2.1083
Interface Courant Number mean: 1.15796e-05 max: 2.1083
deltaT = 0.000181179
Time = 0.0195619

PIMPLE: iteration 1
smoothSolver:  Solving for alpha.water, Initial residual = 3.31008e-06, Final residual = 1.33286e-10, No Iterations 2
Phase-1 volume fraction = 0.125427  Min(alpha.water) = -8.28195e-07  Max(alpha.water) = 1.00005
MULES: Correcting alpha.water
MULES: Correcting alpha.water
Phase-1 volume fraction = 0.125427  Min(alpha.water) = -8.28195e-07  Max(alpha.water) = 1.00005
DICPCG:  Solving for p_rgh, Initial residual = 0.0127177, Final residual = 0.000203228, No Iterations 2
time step continuity errors : sum local = 9.87904e-07, global = -6.51665e-11, cumulative = 5.32869e-07
DICPCG:  Solving for p_rgh, Initial residual = 0.000276789, Final residual = 1.33573e-05, No Iterations 40
time step continuity errors : sum local = 6.41902e-08, global = 1.35969e-10, cumulative = 5.33005e-07
DICPCG:  Solving for p_rgh, Initial residual = 6.77355e-05, Final residual = 3.63879e-06, No Iterations 1001
time step continuity errors : sum local = 1.74822e-08, global = 7.72132e-10, cumulative = 5.33777e-07
smoothSolver:  Solving for epsilon, Initial residual = 0.00303554, Final residual = 9.75683e-07, No Iterations 143
smoothSolver:  Solving for k, Initial residual = 0.00137381, Final residual = 9.94769e-07, No Iterations 251
ExecutionTime = 20820.5 s  ClockTime = 20821 s

Courant Number mean: 0.00405654 max: 0.523179
Interface Courant Number mean: 5.10904e-06 max: 0.418557
deltaT = 0.000214353
Time = 0.0197763

PIMPLE: iteration 1
smoothSolver:  Solving for alpha.water, Initial residual = 3.84995e-06, Final residual = 7.5814e-11, No Iterations 2
Phase-1 volume fraction = 0.125427  Min(alpha.water) = -2.08062e-07  Max(alpha.water) = 1.00005
MULES: Correcting alpha.water
MULES: Correcting alpha.water
Phase-1 volume fraction = 0.125427  Min(alpha.water) = -9.14116e-07  Max(alpha.water) = 1.00005
DICPCG:  Solving for p_rgh, Initial residual = 0.0159712, Final residual = 0.000260707, No Iterations 2
time step continuity errors : sum local = 1.51904e-06, global = 2.24037e-09, cumulative = 5.36017e-07
DICPCG:  Solving for p_rgh, Initial residual = 0.000324931, Final residual = 1.60111e-05, No Iterations 725
time step continuity errors : sum local = 9.19379e-08, global = 4.80282e-10, cumulative = 5.36498e-07
DICPCG:  Solving for p_rgh, Initial residual = 7.75426e-05, Final residual = 2.11711e-06, No Iterations 1001
time step continuity errors : sum local = 1.26457e-08, global = 1.06874e-09, cumulative = 5.37566e-07
smoothSolver:  Solving for epsilon, Initial residual = 0.00355187, Final residual = 9.87626e-07, No Iterations 176
smoothSolver:  Solving for k, Initial residual = 0.00161035, Final residual = 9.89304e-07, No Iterations 308
ExecutionTime = 21149 s  ClockTime = 21150 s

Courant Number mean: 0.00487043 max: 0.663823
Interface Courant Number mean: 6.06558e-06 max: 0.663823
deltaT = 0.000245721
Time = 0.020022

PIMPLE: iteration 1
smoothSolver:  Solving for alpha.water, Initial residual = 4.48801e-06, Final residual = 3.65456e-10, No Iterations 2
Phase-1 volume fraction = 0.125427  Min(alpha.water) = -1.9432e-07  Max(alpha.water) = 1.00005
MULES: Correcting alpha.water
MULES: Correcting alpha.water
Phase-1 volume fraction = 0.125427  Min(alpha.water) = -1.22766e-05  Max(alpha.water) = 1.00005
DICPCG:  Solving for p_rgh, Initial residual = 0.019585, Final residual = 0.00034323, No Iterations 2
time step continuity errors : sum local = 2.35393e-06, global = 2.31553e-09, cumulative = 5.39882e-07
DICPCG:  Solving for p_rgh, Initial residual = 0.000421807, Final residual = 2.09108e-05, No Iterations 692
time step continuity errors : sum local = 1.4114e-07, global = 1.61085e-10, cumulative = 5.40043e-07
[...]
time step continuity errors : sum local = 2.35917e-09, global = -3.53739e-11, cumulative = -2.02611e-06
DICPCG:  Solving for p_rgh, Initial residual = 4.35022e-05, Final residual = 8.67899e-06, No Iterations 1001
time step continuity errors : sum local = 2.59379e-09, global = 4.4601e-11, cumulative = -2.02606e-06
smoothSolver:  Solving for epsilon, Initial residual = 0.00219603, Final residual = 3.54136e-07, No Iterations 4
smoothSolver:  Solving for k, Initial residual = 0.00060487, Final residual = 7.3531e-07, No Iterations 12
ExecutionTime = 394959 s  ClockTime = 394973 s

Courant Number mean: 0.00617179 max: 0.999
Interface Courant Number mean: 4.30555e-06 max: 0.0479581
deltaT = 1.63066e-05
Time = 0.0901019

PIMPLE: iteration 1
smoothSolver:  Solving for alpha.water, Initial residual = 2.93686e-06, Final residual = 2.544e-11, No Iterations 1
Phase-1 volume fraction = 0.125427  Min(alpha.water) = -1.54106e-07  Max(alpha.water) = 1.00005
MULES: Correcting alpha.water
MULES: Correcting alpha.water
Phase-1 volume fraction = 0.125427  Min(alpha.water) = -1.54106e-07  Max(alpha.water) = 1.00005
DICPCG:  Solving for p_rgh, Initial residual = 0.00119412, Final residual = 5.80887e-05, No Iterations 11
time step continuity errors : sum local = 1.68821e-08, global = -1.69737e-09, cumulative = -2.02776e-06
DICPCG:  Solving for p_rgh, Initial residual = 0.000103249, Final residual = 9.96497e-06, No Iterations 1001
time step continuity errors : sum local = 2.89421e-09, global = -5.79242e-11, cumulative = -2.02782e-06
DICPCG:  Solving for p_rgh, Initial residual = 4.49996e-05, Final residual = 8.89075e-06, No Iterations 1001
time step continuity errors : sum local = 2.66125e-09, global = 4.61646e-11, cumulative = -2.02777e-06
smoothSolver:  Solving for epsilon, Initial residual = 0.00219319, Final residual = 3.54318e-07, No Iterations 4
smoothSolver:  Solving for k, Initial residual = 0.000606061, Final residual = 7.35301e-07, No Iterations 12
ExecutionTime = 395238 s  ClockTime = 395253 s

Courant Number mean: 0.00617678 max: 0.99895
Interface Courant Number mean: 4.30849e-06 max: 0.0472
deltaT = 1.63066e-05
Time = 0.0901182

PIMPLE: iteration 1
smoothSolver:  Solving for alpha.water, Initial residual = 2.93828e-06, Final residual = 2.54984e-11, No Iterations 1
Phase-1 volume fraction = 0.125427  Min(alpha.water) = -1.54093e-07  Max(alpha.water) = 1.00005
MULES: Correcting alpha.water
MULES: Correcting alpha.water
Phase-1 volume fraction = 0.125427  Min(alpha.water) = -1.54093e-07  Max(alpha.water) = 1.00005
DICPCG:  Solving for p_rgh, Initial residual = 0.00111413, Final residual = 5.40434e-05, No Iterations 12
time step continuity errors : sum local = 1.56729e-08, global = -1.95157e-10, cumulative = -2.02797e-06
DICPCG:  Solving for p_rgh, Initial residual = 0.000107386, Final residual = 7.92753e-06, No Iterations 1001
time step continuity errors : sum local = 2.29736e-09, global = -3.53857e-11, cumulative = -2.028e-06
DICPCG:  Solving for p_rgh, Initial residual = 4.34524e-05, Final residual = 8.63617e-06, No Iterations 1001
time step continuity errors : sum local = 2.57917e-09, global = 4.47814e-11, cumulative = -2.02796e-06
smoothSolver:  Solving for epsilon, Initial residual = 0.00219533, Final residual = 3.54484e-07, No Iterations 4
smoothSolver:  Solving for k, Initial residual = 0.000607492, Final residual = 7.35287e-07, No Iterations 12
ExecutionTime = 395518 s  ClockTime = 395532 s

Courant Number mean: 0.0061817 max: 0.998986
Interface Courant Number mean: 4.30606e-06 max: 0.0463983
deltaT = 1.63066e-05
Time = 0.0901345

PIMPLE: iteration 1
smoothSolver:  Solving for alpha.water, Initial residual = 2.93967e-06, Final residual = 2.55587e-11, No Iterations 1
Phase-1 volume fraction = 0.125427  Min(alpha.water) = -1.5408e-07  Max(alpha.water) = 1.00005
MULES: Correcting alpha.water
MULES: Correcting alpha.water
Phase-1 volume fraction = 0.125427  Min(alpha.water) = -1.5408e-07  Max(alpha.water) = 1.00005
DICPCG:  Solving for p_rgh, Initial residual = 0.00118473, Final residual = 5.86656e-05, No Iterations 11
time step continuity errors : sum local = 1.70378e-08, global = -1.7181e-09, cumulative = -2.02967e-06
DICPCG:  Solving for p_rgh, Initial residual = 0.000104038, Final residual = 9.60376e-06, No Iterations 1001
time step continuity errors : sum local = 2.78732e-09, global = -5.85072e-11, cumulative = -2.02973e-06
DICPCG:  Solving for p_rgh, Initial residual = 4.48047e-05, Final residual = 8.88125e-06, No Iterations 1001
time step continuity errors : sum local = 2.65659e-09, global = 4.60956e-11, cumulative = -2.02969e-06
smoothSolver:  Solving for epsilon, Initial residual = 0.00219342, Final residual = 3.54642e-07, No Iterations 4
smoothSolver:  Solving for k, Initial residual = 0.000608464, Final residual = 7.35282e-07, No Iterations 12
ExecutionTime = 395798 s  ClockTime = 395812 s

Courant Number mean: 0.00618668 max: 0.998991
Interface Courant Number mean: 4.30507e-06 max: 0.0464172
deltaT = 1.63066e-05
Time = 0.0901508

PIMPLE: iteration 1
smoothSolver:  Solving for alpha.water, Initial residual = 2.9411e-06, Final residual = 2.56131e-11, No Iterations 1
Phase-1 volume fraction = 0.125427  Min(alpha.water) = -1.54067e-07  Max(alpha.water) = 1.00005
MULES: Correcting alpha.water
MULES: Correcting alpha.water
Phase-1 volume fraction = 0.125427  Min(alpha.water) = -1.54067e-07  Max(alpha.water) = 1.00005
DICPCG:  Solving for p_rgh, Initial residual = 0.00110212, Final residual = 5.288e-05, No Iterations 13
time step continuity errors : sum local = 1.53255e-08, global = -2.76003e-10, cumulative = -2.02996e-06
DICPCG:  Solving for p_rgh, Initial residual = 0.000106322, Final residual = 8.19667e-06, No Iterations 1001
time step continuity errors : sum local = 2.37381e-09, global = -3.59391e-11, cumulative = -2.03e-06
DICPCG:  Solving for p_rgh, Initial residual = 4.31551e-05, Final residual = 8.48564e-06, No Iterations 1001
time step continuity errors : sum local = 2.53263e-09, global = 4.45117e-11, cumulative = -2.02995e-06
smoothSolver:  Solving for epsilon, Initial residual = 0.00219751, Final residual = 3.548e-07, No Iterations 4
smoothSolver:  Solving for k, Initial residual = 0.000609901, Final residual = 7.3527e-07, No Iterations 12
ExecutionTime = 396078 s  ClockTime = 396092 s

Courant Number mean: 0.00619161 max: 0.999078
Interface Courant Number mean: 4.31858e-06 max: 0.0469341
deltaT = 1.63066e-05
Time = 0.0901671

PIMPLE: iteration 1
smoothSolver:  Solving for alpha.water, Initial residual = 2.94263e-06, Final residual = 2.565e-11, No Iterations 1
Phase-1 volume fraction = 0.125427  Min(alpha.water) = -1.54054e-07  Max(alpha.water) = 1.00005
MULES: Correcting alpha.water
MULES: Correcting alpha.water
Phase-1 volume fraction = 0.125427  Min(alpha.water) = -1.54054e-07  Max(alpha.water) = 1.00005
DICPCG:  Solving for p_rgh, Initial residual = 0.00116568, Final residual = 5.53946e-05, No Iterations 18
time step continuity errors : sum local = 1.60791e-08, global = -1.35316e-09, cumulative = -2.03131e-06
DICPCG:  Solving for p_rgh, Initial residual = 0.000107474, Final residual = 1.00835e-05, No Iterations 1001
time step continuity errors : sum local = 2.92496e-09, global = -5.6658e-11, cumulative = -2.03136e-06
DICPCG:  Solving for p_rgh, Initial residual = 4.14841e-05, Final residual = 8.76111e-06, No Iterations 1001
time step continuity errors : sum local = 2.61926e-09, global = 4.39803e-11, cumulative = -2.03132e-06
smoothSolver:  Solving for epsilon, Initial residual = 0.0021936, Final residual = 3.54968e-07, No Iterations 4
smoothSolver:  Solving for k, Initial residual = 0.000611102, Final residual = 7.35268e-07, No Iterations 12
ExecutionTime = 396358 s  ClockTime = 396373 s

Courant Number mean: 0.00619662 max: 0.999132
Interface Courant Number mean: 4.32186e-06 max: 0.0473342
deltaT = 1.63066e-05
Time = 0.0901834

PIMPLE: iteration 1
smoothSolver:  Solving for alpha.water, Initial residual = 2.94404e-06, Final residual = 2.56958e-11, No Iterations 1
Phase-1 volume fraction = 0.125427  Min(alpha.water) = -1.5404e-07  Max(alpha.water) = 1.00005
MULES: Correcting alpha.water
MULES: Correcting alpha.water
Phase-1 volume fraction = 0.125427  Min(alpha.water) = -1.5404e-07  Max(alpha.water) = 1.00005
DICPCG:  Solving for p_rgh, Initial residual = 0.00108668, Final residual = 5.23215e-05, No Iterations 14
time step continuity errors : sum local = 1.51531e-08, global = -3.54499e-10, cumulative = -2.03168e-06
DICPCG:  Solving for p_rgh, Initial residual = 0.000106299, Final residual = 8.08894e-06, No Iterations 1001
time step continuity errors : sum local = 2.34095e-09, global = -3.56071e-11, cumulative = -2.03171e-06
DICPCG:  Solving for p_rgh, Initial residual = 4.27419e-05, Final residual = 8.36202e-06, No Iterations 1001
time step continuity errors : sum local = 2.49399e-09, global = 4.47308e-11, cumulative = -2.03167e-06
smoothSolver:  Solving for epsilon, Initial residual = 0.00219693, Final residual = 3.55104e-07, No Iterations 4
smoothSolver:  Solving for k, Initial residual = 0.000612374, Final residual = 7.35259e-07, No Iterations 12
ExecutionTime = 396638 s  ClockTime = 396653 s

Courant Number mean: 0.00620154 max: 0.999266
Interface Courant Number mean: 4.31688e-06 max: 0.0479961
deltaT = 1.63066e-05
Time = 0.0901997

PIMPLE: iteration 1
smoothSolver:  Solving for alpha.water, Initial residual = 2.94545e-06, Final residual = 2.5729e-11, No Iterations 1
Phase-1 volume fraction = 0.125427  Min(alpha.water) = -1.54027e-07  Max(alpha.water) = 1.00005
MULES: Correcting alpha.water
MULES: Correcting alpha.water
Phase-1 volume fraction = 0.125427  Min(alpha.water) = -1.54027e-07  Max(alpha.water) = 1.00005
DICPCG:  Solving for p_rgh, Initial residual = 0.00117851, Final residual = 5.88094e-05, No Iterations 16
time step continuity errors : sum local = 1.70544e-08, global = -1.54086e-09, cumulative = -2.03321e-06
DICPCG:  Solving for p_rgh, Initial residual = 0.000109146, Final residual = 9.78891e-06, No Iterations 1001
time step continuity errors : sum local = 2.83687e-09, global = -5.7374e-11, cumulative = -2.03326e-06
DICPCG:  Solving for p_rgh, Initial residual = 4.29097e-05, Final residual = 9.08376e-06, No Iterations 1001
time step continuity errors : sum local = 2.7133e-09, global = 4.52282e-11, cumulative = -2.03322e-06
smoothSolver:  Solving for epsilon, Initial residual = 0.00219357, Final residual = 3.5524e-07, No Iterations 4
smoothSolver:  Solving for k, Initial residual = 0.000613657, Final residual = 7.35259e-07, No Iterations 12
ExecutionTime = 396919 s  ClockTime = 396933 s

Courant Number mean: 0.00620654 max: 0.999363
Interface Courant Number mean: 4.316e-06 max: 0.0484039
deltaT = 1.63066e-05
Time = 0.0902161

PIMPLE: iteration 1
smoothSolver:  Solving for alpha.water, Initial residual = 2.94692e-06, Final residual = 2.5731e-11, No Iterations 1
Phase-1 volume fraction = 0.125427  Min(alpha.water) = -1.54014e-07  Max(alpha.water) = 1.00005
MULES: Correcting alpha.water
MULES: Correcting alpha.water
Phase-1 volume fraction = 0.125427  Min(alpha.water) = -1.54014e-07  Max(alpha.water) = 1.00005
DICPCG:  Solving for p_rgh, Initial residual = 0.00112792, Final residual = 5.54617e-05, No Iterations 14
time step continuity errors : sum local = 1.60193e-08, global = -1.51192e-10, cumulative = -2.03337e-06
DICPCG:  Solving for p_rgh, Initial residual = 0.000116909, Final residual = 7.53312e-06, No Iterations 1001
time step continuity errors : sum local = 2.17424e-09, global = -3.21164e-11, cumulative = -2.0334e-06
DICPCG:  Solving for p_rgh, Initial residual = 4.38522e-05, Final residual = 8.47743e-06, No Iterations 1001
time step continuity errors : sum local = 2.52155e-09, global = 4.52778e-11, cumulative = -2.03336e-06
smoothSolver:  Solving for epsilon, Initial residual = 0.00219864, Final residual = 3.55358e-07, No Iterations 4
smoothSolver:  Solving for k, Initial residual = 0.000615007, Final residual = 7.3525e-07, No Iterations 12
ExecutionTime = 397200 s  ClockTime = 397214 s

Courant Number mean: 0.00621144 max: 0.999795
Interface Courant Number mean: 4.31779e-06 max: 0.0485359
deltaT = 1.63066e-05
Time = 0.0902324

PIMPLE: iteration 1
smoothSolver:  Solving for alpha.water, Initial residual = 2.94839e-06, Final residual = 2.57162e-11, No Iterations 1
Phase-1 volume fraction = 0.125427  Min(alpha.water) = -1.54e-07  Max(alpha.water) = 1.00005
MULES: Correcting alpha.water
MULES: Correcting alpha.water
Phase-1 volume fraction = 0.125427  Min(alpha.water) = -1.54e-07  Max(alpha.water) = 1.00005
DICPCG:  Solving for p_rgh, Initial residual = 0.00125414, Final residual = 5.80789e-05, No Iterations 18
time step continuity errors : sum local = 1.68262e-08, global = -1.46425e-09, cumulative = -2.03482e-06
DICPCG:  Solving for p_rgh, Initial residual = 0.000111305, Final residual = 1.04336e-05, No Iterations 1001
time step continuity errors : sum local = 3.0209e-09, global = -6.04067e-11, cumulative = -2.03488e-06
DICPCG:  Solving for p_rgh, Initial residual = 4.2671e-05, Final residual = 9.15216e-06, No Iterations 1001
time step continuity errors : sum local = 2.73138e-09, global = 4.42525e-11, cumulative = -2.03484e-06
smoothSolver:  Solving for epsilon, Initial residual = 0.0021929, Final residual = 3.55482e-07, No Iterations 4
smoothSolver:  Solving for k, Initial residual = 0.000615963, Final residual = 7.35252e-07, No Iterations 12
ExecutionTime = 397482 s  ClockTime = 397496 s

Courant Number mean: 0.00621645 max: 0.999825
Interface Courant Number mean: 4.32565e-06 max: 0.0484025
deltaT = 1.63066e-05
Time = 0.0902487

PIMPLE: iteration 1
smoothSolver:  Solving for alpha.water, Initial residual = 2.94986e-06, Final residual = 2.56878e-11, No Iterations 1
Phase-1 volume fraction = 0.125427  Min(alpha.water) = -1.53986e-07  Max(alpha.water) = 1.00005
MULES: Correcting alpha.water
MULES: Correcting alpha.water
Phase-1 volume fraction = 0.125427  Min(alpha.water) = -1.53986e-07  Max(alpha.water) = 1.00005
DICPCG:  Solving for p_rgh, Initial residual = 0.00112409, Final residual = 5.37067e-05, No Iterations 14
time step continuity errors : sum local = 1.54987e-08, global = -1.52704e-10, cumulative = -2.03499e-06
DICPCG:  Solving for p_rgh, Initial residual = 0.000113803, Final residual = 7.43231e-06, No Iterations 1001
time step continuity errors : sum local = 2.1433e-09, global = -3.43518e-11, cumulative = -2.03502e-06
DICPCG:  Solving for p_rgh, Initial residual = 4.36873e-05, Final residual = 8.94611e-06, No Iterations 1001
time step continuity errors : sum local = 2.65894e-09, global = 4.38461e-11, cumulative = -2.03498e-06
smoothSolver:  Solving for epsilon, Initial residual = 0.00220144, Final residual = 3.55596e-07, No Iterations 4
smoothSolver:  Solving for k, Initial residual = 0.000617337, Final residual = 7.35245e-07, No Iterations 12
ExecutionTime = 397757 s  ClockTime = 397771 s

Courant Number mean: 0.00622136 max: 1.00021
Interface Courant Number mean: 4.32343e-06 max: 0.0480366
deltaT = 1.62794e-05
Time = 0.0902649

PIMPLE: iteration 1
smoothSolver:  Solving for alpha.water, Initial residual = 2.94639e-06, Final residual = 2.55247e-11, No Iterations 1
Phase-1 volume fraction = 0.125427  Min(alpha.water) = -1.53973e-07  Max(alpha.water) = 1.00005
MULES: Correcting alpha.water
MULES: Correcting alpha.water
Phase-1 volume fraction = 0.125427  Min(alpha.water) = -1.53973e-07  Max(alpha.water) = 1.00005
DICPCG:  Solving for p_rgh, Initial residual = 0.00123444, Final residual = 5.87219e-05, No Iterations 18
time step continuity errors : sum local = 1.6963e-08, global = -1.48727e-09, cumulative = -2.03647e-06
DICPCG:  Solving for p_rgh, Initial residual = 0.0001127, Final residual = 1.02799e-05, No Iterations 1001
time step continuity errors : sum local = 2.96773e-09, global = -6.17602e-11, cumulative = -2.03653e-06
DICPCG:  Solving for p_rgh, Initial residual = 4.29326e-05, Final residual = 9.1913e-06, No Iterations 1001
time step continuity errors : sum local = 2.73501e-09, global = 4.41617e-11, cumulative = -2.03649e-06
smoothSolver:  Solving for epsilon, Initial residual = 0.00219174, Final residual = 3.53328e-07, No Iterations 4
smoothSolver:  Solving for k, Initial residual = 0.000617372, Final residual = 7.29793e-07, No Iterations 12
ExecutionTime = 398032 s  ClockTime = 398047 s

Courant Number mean: 0.00621597 max: 0.998515
Interface Courant Number mean: 4.29485e-06 max: 0.0474042
deltaT = 1.62794e-05
Time = 0.0902812

PIMPLE: iteration 1
smoothSolver:  Solving for alpha.water, Initial residual = 2.94791e-06, Final residual = 2.5495e-11, No Iterations 1
Phase-1 volume fraction = 0.125427  Min(alpha.water) = -1.53959e-07  Max(alpha.water) = 1.00005
MULES: Correcting alpha.water
MULES: Correcting alpha.water
Phase-1 volume fraction = 0.125427  Min(alpha.water) = -1.53959e-07  Max(alpha.water) = 1.00005
DICPCG:  Solving for p_rgh, Initial residual = 0.00112258, Final residual = 5.54508e-05, No Iterations 14
time step continuity errors : sum local = 1.5955e-08, global = -1.42086e-10, cumulative = -2.03663e-06
DICPCG:  Solving for p_rgh, Initial residual = 0.000115294, Final residual = 7.54243e-06, No Iterations 1001
time step continuity errors : sum local = 2.16866e-09, global = -3.35477e-11, cumulative = -2.03666e-06
DICPCG:  Solving for p_rgh, Initial residual = 4.38913e-05, Final residual = 8.80233e-06, No Iterations 1001
time step continuity errors : sum local = 2.6086e-09, global = 4.47558e-11, cumulative = -2.03662e-06
smoothSolver:  Solving for epsilon, Initial residual = 0.00219855, Final residual = 3.53409e-07, No Iterations 4
smoothSolver:  Solving for k, Initial residual = 0.000618793, Final residual = 7.29788e-07, No Iterations 12
ExecutionTime = 398308 s  ClockTime = 398322 s

Courant Number mean: 0.00622088 max: 0.998872
Interface Courant Number mean: 4.30371e-06 max: 0.0467103
deltaT = 1.62794e-05
Time = 0.0902975

PIMPLE: iteration 1
smoothSolver:  Solving for alpha.water, Initial residual = 2.94951e-06, Final residual = 2.54699e-11, No Iterations 1
Phase-1 volume fraction = 0.125427  Min(alpha.water) = -1.53945e-07  Max(alpha.water) = 1.00005
MULES: Correcting alpha.water
MULES: Correcting alpha.water
Phase-1 volume fraction = 0.125427  Min(alpha.water) = -1.53945e-07  Max(alpha.water) = 1.00005
DICPCG:  Solving for p_rgh, Initial residual = 0.00124258, Final residual = 5.92376e-05, No Iterations 18
time step continuity errors : sum local = 1.70988e-08, global = -1.51264e-09, cumulative = -2.03813e-06
DICPCG:  Solving for p_rgh, Initial residual = 0.000114078, Final residual = 1.04451e-05, No Iterations 1001
time step continuity errors : sum local = 3.01316e-09, global = -6.17686e-11, cumulative = -2.03819e-06
DICPCG:  Solving for p_rgh, Initial residual = 4.35426e-05, Final residual = 9.05129e-06, No Iterations 1001
time step continuity errors : sum local = 2.69157e-09, global = 4.49175e-11, cumulative = -2.03815e-06
smoothSolver:  Solving for epsilon, Initial residual = 0.00219255, Final residual = 3.5349e-07, No Iterations 4
smoothSolver:  Solving for k, Initial residual = 0.00061972, Final residual = 7.29794e-07, No Iterations 12
ExecutionTime = 398585 s  ClockTime = 398600 s

Courant Number mean: 0.0062259 max: 0.998806
Interface Courant Number mean: 4.30167e-06 max: 0.0459678
deltaT = 1.62794e-05
Time = 0.0903138

PIMPLE: iteration 1
smoothSolver:  Solving for alpha.water, Initial residual = 2.95125e-06, Final residual = 2.54587e-11, No Iterations 1
Phase-1 volume fraction = 0.125427  Min(alpha.water) = -1.53931e-07  Max(alpha.water) = 1.00005
MULES: Correcting alpha.water
MULES: Correcting alpha.water
Phase-1 volume fraction = 0.125427  Min(alpha.water) = -1.53931e-07  Max(alpha.water) = 1.00005
DICPCG:  Solving for p_rgh, Initial residual = 0.0011203, Final residual = 5.59127e-05, No Iterations 14
time step continuity errors : sum local = 1.60776e-08, global = -1.33866e-10, cumulative = -2.03828e-06
